<routes>
  <vType id="type1" length="5" accel="5" decel="10"/>
  <flow id="i_1" departPos="random_free" from="nt1_nt2" to="nt20_np9" begin="0" end="1" departLane="0" departSpeed="random" arrivalPos ="10" number="6" type="type1"/>
  <flow id="i_2" departPos="random_free" from="nt2_nt1" to="nt25_np10" begin="0" end="1" departLane="0" departSpeed="random" arrivalPos ="10" number="6" type="type1"/>
  <flow id="i_3" departPos="random_free" from="nt1_nt2" to="nt5_np6" begin="0" end="1" departLane="1" departSpeed="random" arrivalPos ="10" number="6" type="type1"/>
  <flow id="i_4" departPos="random_free" from="nt2_nt1" to="nt11_np18" begin="0" end="1" departLane="1" departSpeed="random" arrivalPos ="10" number="6" type="type1"/>
  <flow id="i_5" departPos="random_free" from="nt2_nt3" to="nt15_np8" begin="0" end="1" departLane="0" departSpeed="random" arrivalPos ="10" number="6" type="type1"/>
  <flow id="i_6" departPos="random_free" from="nt3_nt2" to="nt21_np16" begin="0" end="1" departLane="0" departSpeed="random" arrivalPos ="10" number="6" type="type1"/>
  <flow id="i_7" departPos="random_free" from="nt2_nt3" to="nt6_np19" begin="0" end="1" departLane="1" departSpeed="random" arrivalPos ="10" number="6" type="type1"/>
  <flow id="i_8" departPos="random_free" from="nt3_nt2" to="nt25_np11" begin="0" end="1" departLane="1" departSpeed="random" arrivalPos ="10" number="6" type="type1"/>
  <flow id="i_9" departPos="random_free" from="nt3_nt4" to="nt10_np7" begin="0" end="1" departLane="0" departSpeed="random" arrivalPos ="10" number="6" type="type1"/>
  <flow id="i_10" departPos="random_free" from="nt4_nt3" to="nt21_np16" begin="0" end="1" departLane="0" departSpeed="random" arrivalPos ="10" number="6" type="type1"/>
  <flow id="i_11" departPos="random_free" from="nt3_nt4" to="nt6_np19" begin="0" end="1" departLane="1" departSpeed="random" arrivalPos ="10" number="6" type="type1"/>
  <flow id="i_12" departPos="random_free" from="nt4_nt3" to="nt5_np5" begin="0" end="1" departLane="1" departSpeed="random" arrivalPos ="10" number="6" type="type1"/>
  <flow id="i_13" departPos="random_free" from="nt4_nt5" to="nt10_np7" begin="0" end="1" departLane="0" departSpeed="random" arrivalPos ="10" number="6" type="type1"/>
  <flow id="i_14" departPos="random_free" from="nt5_nt4" to="nt24_np12" begin="0" end="1" departLane="0" departSpeed="random" arrivalPos ="10" number="6" type="type1"/>
  <flow id="i_15" departPos="random_free" from="nt4_nt5" to="nt10_np7" begin="0" end="1" departLane="1" departSpeed="random" arrivalPos ="10" number="6" type="type1"/>
  <flow id="i_16" departPos="random_free" from="nt5_nt4" to="nt24_np12" begin="0" end="1" departLane="1" departSpeed="random" arrivalPos ="10" number="6" type="type1"/>
  <flow id="i_17" departPos="random_free" from="nt6_nt7" to="nt5_np5" begin="0" end="1" departLane="0" departSpeed="random" arrivalPos ="10" number="6" type="type1"/>
  <flow id="i_18" departPos="random_free" from="nt7_nt6" to="nt11_np18" begin="0" end="1" departLane="0" departSpeed="random" arrivalPos ="10" number="6" type="type1"/>
  <flow id="i_19" departPos="random_free" from="nt6_nt7" to="nt23_np13" begin="0" end="1" departLane="1" departSpeed="random" arrivalPos ="10" number="6" type="type1"/>
  <flow id="i_20" departPos="random_free" from="nt7_nt6" to="nt16_np17" begin="0" end="1" departLane="1" departSpeed="random" arrivalPos ="10" number="6" type="type1"/>
  <flow id="i_21" departPos="random_free" from="nt7_nt8" to="nt1_np20" begin="0" end="1" departLane="0" departSpeed="random" arrivalPos ="10" number="6" type="type1"/>
  <flow id="i_22" departPos="random_free" from="nt8_nt7" to="nt25_np10" begin="0" end="1" departLane="0" departSpeed="random" arrivalPos ="10" number="6" type="type1"/>
  <flow id="i_23" departPos="random_free" from="nt7_nt8" to="nt4_np4" begin="0" end="1" departLane="1" departSpeed="random" arrivalPos ="10" number="6" type="type1"/>
  <flow id="i_24" departPos="random_free" from="nt8_nt7" to="nt21_np16" begin="0" end="1" departLane="1" departSpeed="random" arrivalPos ="10" number="6" type="type1"/>
  <flow id="i_25" departPos="random_free" from="nt8_nt9" to="nt25_np11" begin="0" end="1" departLane="0" departSpeed="random" arrivalPos ="10" number="6" type="type1"/>
  <flow id="i_26" departPos="random_free" from="nt9_nt8" to="nt25_np10" begin="0" end="1" departLane="0" departSpeed="random" arrivalPos ="10" number="6" type="type1"/>
  <flow id="i_27" departPos="random_free" from="nt8_nt9" to="nt10_np7" begin="0" end="1" departLane="1" departSpeed="random" arrivalPos ="10" number="6" type="type1"/>
  <flow id="i_28" departPos="random_free" from="nt9_nt8" to="nt21_np16" begin="0" end="1" departLane="1" departSpeed="random" arrivalPos ="10" number="6" type="type1"/>
  <flow id="i_29" departPos="random_free" from="nt9_nt10" to="nt11_np18" begin="0" end="1" departLane="0" departSpeed="random" arrivalPos ="10" number="6" type="type1"/>
  <flow id="i_30" departPos="random_free" from="nt10_nt9" to="nt2_np2" begin="0" end="1" departLane="0" departSpeed="random" arrivalPos ="10" number="6" type="type1"/>
  <flow id="i_31" departPos="random_free" from="nt9_nt10" to="nt2_np2" begin="0" end="1" departLane="1" departSpeed="random" arrivalPos ="10" number="6" type="type1"/>
  <flow id="i_32" departPos="random_free" from="nt10_nt9" to="nt23_np13" begin="0" end="1" departLane="1" departSpeed="random" arrivalPos ="10" number="6" type="type1"/>
  <flow id="i_33" departPos="random_free" from="nt11_nt12" to="nt21_np16" begin="0" end="1" departLane="0" departSpeed="random" arrivalPos ="10" number="6" type="type1"/>
  <flow id="i_34" departPos="random_free" from="nt12_nt11" to="nt5_np5" begin="0" end="1" departLane="0" departSpeed="random" arrivalPos ="10" number="6" type="type1"/>
  <flow id="i_35" departPos="random_free" from="nt11_nt12" to="nt23_np13" begin="0" end="1" departLane="1" departSpeed="random" arrivalPos ="10" number="6" type="type1"/>
  <flow id="i_36" departPos="random_free" from="nt12_nt11" to="nt21_np15" begin="0" end="1" departLane="1" departSpeed="random" arrivalPos ="10" number="6" type="type1"/>
  <flow id="i_37" departPos="random_free" from="nt12_nt13" to="nt11_np18" begin="0" end="1" departLane="0" departSpeed="random" arrivalPos ="10" number="6" type="type1"/>
  <flow id="i_38" departPos="random_free" from="nt13_nt12" to="nt4_np4" begin="0" end="1" departLane="0" departSpeed="random" arrivalPos ="10" number="6" type="type1"/>
  <flow id="i_39" departPos="random_free" from="nt12_nt13" to="nt1_np1" begin="0" end="1" departLane="1" departSpeed="random" arrivalPos ="10" number="6" type="type1"/>
  <flow id="i_40" departPos="random_free" from="nt13_nt12" to="nt11_np18" begin="0" end="1" departLane="1" departSpeed="random" arrivalPos ="10" number="6" type="type1"/>
  <flow id="i_41" departPos="random_free" from="nt13_nt14" to="nt20_np9" begin="0" end="1" departLane="0" departSpeed="random" arrivalPos ="10" number="6" type="type1"/>
  <flow id="i_42" departPos="random_free" from="nt14_nt13" to="nt5_np5" begin="0" end="1" departLane="0" departSpeed="random" arrivalPos ="10" number="6" type="type1"/>
  <flow id="i_43" departPos="random_free" from="nt13_nt14" to="nt4_np4" begin="0" end="1" departLane="1" departSpeed="random" arrivalPos ="10" number="6" type="type1"/>
  <flow id="i_44" departPos="random_free" from="nt14_nt13" to="nt23_np13" begin="0" end="1" departLane="1" departSpeed="random" arrivalPos ="10" number="6" type="type1"/>
  <flow id="i_45" departPos="random_free" from="nt14_nt15" to="nt6_np19" begin="0" end="1" departLane="0" departSpeed="random" arrivalPos ="10" number="6" type="type1"/>
  <flow id="i_46" departPos="random_free" from="nt15_nt14" to="nt25_np11" begin="0" end="1" departLane="0" departSpeed="random" arrivalPos ="10" number="6" type="type1"/>
  <flow id="i_47" departPos="random_free" from="nt14_nt15" to="nt1_np1" begin="0" end="1" departLane="1" departSpeed="random" arrivalPos ="10" number="6" type="type1"/>
  <flow id="i_48" departPos="random_free" from="nt15_nt14" to="nt3_np3" begin="0" end="1" departLane="1" departSpeed="random" arrivalPos ="10" number="6" type="type1"/>
  <flow id="i_49" departPos="random_free" from="nt16_nt17" to="nt11_np18" begin="0" end="1" departLane="0" departSpeed="random" arrivalPos ="10" number="6" type="type1"/>
  <flow id="i_50" departPos="random_free" from="nt17_nt16" to="nt16_np17" begin="0" end="1" departLane="0" departSpeed="random" arrivalPos ="10" number="6" type="type1"/>
  <flow id="i_51" departPos="random_free" from="nt16_nt17" to="nt20_np9" begin="0" end="1" departLane="1" departSpeed="random" arrivalPos ="10" number="6" type="type1"/>
  <flow id="i_52" departPos="random_free" from="nt17_nt16" to="nt5_np5" begin="0" end="1" departLane="1" departSpeed="random" arrivalPos ="10" number="6" type="type1"/>
  <flow id="i_53" departPos="random_free" from="nt17_nt18" to="nt16_np17" begin="0" end="1" departLane="0" departSpeed="random" arrivalPos ="10" number="6" type="type1"/>
  <flow id="i_54" departPos="random_free" from="nt18_nt17" to="nt4_np4" begin="0" end="1" departLane="0" departSpeed="random" arrivalPos ="10" number="6" type="type1"/>
  <flow id="i_55" departPos="random_free" from="nt17_nt18" to="nt2_np2" begin="0" end="1" departLane="1" departSpeed="random" arrivalPos ="10" number="6" type="type1"/>
  <flow id="i_56" departPos="random_free" from="nt18_nt17" to="nt16_np17" begin="0" end="1" departLane="1" departSpeed="random" arrivalPos ="10" number="6" type="type1"/>
  <flow id="i_57" departPos="random_free" from="nt18_nt19" to="nt21_np15" begin="0" end="1" departLane="0" departSpeed="random" arrivalPos ="10" number="6" type="type1"/>
  <flow id="i_58" departPos="random_free" from="nt19_nt18" to="nt2_np2" begin="0" end="1" departLane="0" departSpeed="random" arrivalPos ="10" number="6" type="type1"/>
  <flow id="i_59" departPos="random_free" from="nt18_nt19" to="nt11_np18" begin="0" end="1" departLane="1" departSpeed="random" arrivalPos ="10" number="6" type="type1"/>
  <flow id="i_60" departPos="random_free" from="nt19_nt18" to="nt10_np7" begin="0" end="1" departLane="1" departSpeed="random" arrivalPos ="10" number="6" type="type1"/>
  <flow id="i_61" departPos="random_free" from="nt19_nt20" to="nt22_np14" begin="0" end="1" departLane="0" departSpeed="random" arrivalPos ="10" number="6" type="type1"/>
  <flow id="i_62" departPos="random_free" from="nt20_nt19" to="nt5_np6" begin="0" end="1" departLane="0" departSpeed="random" arrivalPos ="10" number="6" type="type1"/>
  <flow id="i_63" departPos="random_free" from="nt19_nt20" to="nt10_np7" begin="0" end="1" departLane="1" departSpeed="random" arrivalPos ="10" number="6" type="type1"/>
  <flow id="i_64" departPos="random_free" from="nt20_nt19" to="nt6_np19" begin="0" end="1" departLane="1" departSpeed="random" arrivalPos ="10" number="6" type="type1"/>
  <flow id="i_65" departPos="random_free" from="nt21_nt22" to="nt20_np9" begin="0" end="1" departLane="0" departSpeed="random" arrivalPos ="10" number="6" type="type1"/>
  <flow id="i_66" departPos="random_free" from="nt22_nt21" to="nt24_np12" begin="0" end="1" departLane="0" departSpeed="random" arrivalPos ="10" number="6" type="type1"/>
  <flow id="i_67" departPos="random_free" from="nt21_nt22" to="nt21_np15" begin="0" end="1" departLane="1" departSpeed="random" arrivalPos ="10" number="6" type="type1"/>
  <flow id="i_68" departPos="random_free" from="nt22_nt21" to="nt2_np2" begin="0" end="1" departLane="1" departSpeed="random" arrivalPos ="10" number="6" type="type1"/>
  <flow id="i_69" departPos="random_free" from="nt22_nt23" to="nt16_np17" begin="0" end="1" departLane="0" departSpeed="random" arrivalPos ="10" number="6" type="type1"/>
  <flow id="i_70" departPos="random_free" from="nt23_nt22" to="nt1_np20" begin="0" end="1" departLane="0" departSpeed="random" arrivalPos ="10" number="6" type="type1"/>
  <flow id="i_71" departPos="random_free" from="nt22_nt23" to="nt1_np20" begin="0" end="1" departLane="1" departSpeed="random" arrivalPos ="10" number="6" type="type1"/>
  <flow id="i_72" departPos="random_free" from="nt23_nt22" to="nt25_np10" begin="0" end="1" departLane="1" departSpeed="random" arrivalPos ="10" number="6" type="type1"/>
  <flow id="i_73" departPos="random_free" from="nt23_nt24" to="nt21_np15" begin="0" end="1" departLane="0" departSpeed="random" arrivalPos ="10" number="6" type="type1"/>
  <flow id="i_74" departPos="random_free" from="nt24_nt23" to="nt10_np7" begin="0" end="1" departLane="0" departSpeed="random" arrivalPos ="10" number="6" type="type1"/>
  <flow id="i_75" departPos="random_free" from="nt23_nt24" to="nt3_np3" begin="0" end="1" departLane="1" departSpeed="random" arrivalPos ="10" number="6" type="type1"/>
  <flow id="i_76" departPos="random_free" from="nt24_nt23" to="nt21_np15" begin="0" end="1" departLane="1" departSpeed="random" arrivalPos ="10" number="6" type="type1"/>
  <flow id="i_77" departPos="random_free" from="nt24_nt25" to="nt1_np20" begin="0" end="1" departLane="0" departSpeed="random" arrivalPos ="10" number="6" type="type1"/>
  <flow id="i_78" departPos="random_free" from="nt25_nt24" to="nt15_np8" begin="0" end="1" departLane="0" departSpeed="random" arrivalPos ="10" number="6" type="type1"/>
  <flow id="i_79" departPos="random_free" from="nt24_nt25" to="nt23_np13" begin="0" end="1" departLane="1" departSpeed="random" arrivalPos ="10" number="6" type="type1"/>
  <flow id="i_80" departPos="random_free" from="nt25_nt24" to="nt10_np7" begin="0" end="1" departLane="1" departSpeed="random" arrivalPos ="10" number="6" type="type1"/>
  <flow id="i_81" departPos="random_free" from="nt1_nt6" to="nt23_np13" begin="0" end="1" departLane="0" departSpeed="random" arrivalPos ="10" number="6" type="type1"/>
  <flow id="i_82" departPos="random_free" from="nt6_nt1" to="nt10_np7" begin="0" end="1" departLane="0" departSpeed="random" arrivalPos ="10" number="6" type="type1"/>
  <flow id="i_83" departPos="random_free" from="nt6_nt11" to="nt6_np19" begin="0" end="1" departLane="0" departSpeed="random" arrivalPos ="10" number="6" type="type1"/>
  <flow id="i_84" departPos="random_free" from="nt11_nt6" to="nt4_np4" begin="0" end="1" departLane="0" departSpeed="random" arrivalPos ="10" number="6" type="type1"/>
  <flow id="i_85" departPos="random_free" from="nt11_nt16" to="nt4_np4" begin="0" end="1" departLane="0" departSpeed="random" arrivalPos ="10" number="6" type="type1"/>
  <flow id="i_86" departPos="random_free" from="nt16_nt11" to="nt23_np13" begin="0" end="1" departLane="0" departSpeed="random" arrivalPos ="10" number="6" type="type1"/>
  <flow id="i_87" departPos="random_free" from="nt16_nt21" to="nt21_np15" begin="0" end="1" departLane="0" departSpeed="random" arrivalPos ="10" number="6" type="type1"/>
  <flow id="i_88" departPos="random_free" from="nt21_nt16" to="nt5_np6" begin="0" end="1" departLane="0" departSpeed="random" arrivalPos ="10" number="6" type="type1"/>
  <flow id="i_89" departPos="random_free" from="nt2_nt7" to="nt3_np3" begin="0" end="1" departLane="0" departSpeed="random" arrivalPos ="10" number="6" type="type1"/>
  <flow id="i_90" departPos="random_free" from="nt7_nt2" to="nt6_np19" begin="0" end="1" departLane="0" departSpeed="random" arrivalPos ="10" number="6" type="type1"/>
  <flow id="i_91" departPos="random_free" from="nt7_nt12" to="nt16_np17" begin="0" end="1" departLane="0" departSpeed="random" arrivalPos ="10" number="6" type="type1"/>
  <flow id="i_92" departPos="random_free" from="nt12_nt7" to="nt5_np6" begin="0" end="1" departLane="0" departSpeed="random" arrivalPos ="10" number="6" type="type1"/>
  <flow id="i_93" departPos="random_free" from="nt12_nt17" to="nt20_np9" begin="0" end="1" departLane="0" departSpeed="random" arrivalPos ="10" number="6" type="type1"/>
  <flow id="i_94" departPos="random_free" from="nt17_nt12" to="nt24_np12" begin="0" end="1" departLane="0" departSpeed="random" arrivalPos ="10" number="6" type="type1"/>
  <flow id="i_95" departPos="random_free" from="nt17_nt22" to="nt21_np15" begin="0" end="1" departLane="0" departSpeed="random" arrivalPos ="10" number="6" type="type1"/>
  <flow id="i_96" departPos="random_free" from="nt22_nt17" to="nt25_np10" begin="0" end="1" departLane="0" departSpeed="random" arrivalPos ="10" number="6" type="type1"/>
  <flow id="i_97" departPos="random_free" from="nt3_nt8" to="nt21_np15" begin="0" end="1" departLane="0" departSpeed="random" arrivalPos ="10" number="6" type="type1"/>
  <flow id="i_98" departPos="random_free" from="nt8_nt3" to="nt4_np4" begin="0" end="1" departLane="0" departSpeed="random" arrivalPos ="10" number="6" type="type1"/>
  <flow id="i_99" departPos="random_free" from="nt8_nt13" to="nt5_np6" begin="0" end="1" departLane="0" departSpeed="random" arrivalPos ="10" number="6" type="type1"/>
  <flow id="i_100" departPos="random_free" from="nt13_nt8" to="nt15_np8" begin="0" end="1" departLane="0" departSpeed="random" arrivalPos ="10" number="6" type="type1"/>
  <flow id="i_101" departPos="random_free" from="nt13_nt18" to="nt25_np10" begin="0" end="1" departLane="0" departSpeed="random" arrivalPos ="10" number="6" type="type1"/>
  <flow id="i_102" departPos="random_free" from="nt18_nt13" to="nt1_np1" begin="0" end="1" departLane="0" departSpeed="random" arrivalPos ="10" number="6" type="type1"/>
  <flow id="i_103" departPos="random_free" from="nt18_nt23" to="nt23_np13" begin="0" end="1" departLane="0" departSpeed="random" arrivalPos ="10" number="6" type="type1"/>
  <flow id="i_104" departPos="random_free" from="nt23_nt18" to="nt25_np10" begin="0" end="1" departLane="0" departSpeed="random" arrivalPos ="10" number="6" type="type1"/>
  <flow id="i_105" departPos="random_free" from="nt4_nt9" to="nt5_np5" begin="0" end="1" departLane="0" departSpeed="random" arrivalPos ="10" number="6" type="type1"/>
  <flow id="i_106" departPos="random_free" from="nt9_nt4" to="nt20_np9" begin="0" end="1" departLane="0" departSpeed="random" arrivalPos ="10" number="6" type="type1"/>
  <flow id="i_107" departPos="random_free" from="nt9_nt14" to="nt5_np5" begin="0" end="1" departLane="0" departSpeed="random" arrivalPos ="10" number="6" type="type1"/>
  <flow id="i_108" departPos="random_free" from="nt14_nt9" to="nt25_np10" begin="0" end="1" departLane="0" departSpeed="random" arrivalPos ="10" number="6" type="type1"/>
  <flow id="i_109" departPos="random_free" from="nt14_nt19" to="nt21_np16" begin="0" end="1" departLane="0" departSpeed="random" arrivalPos ="10" number="6" type="type1"/>
  <flow id="i_110" departPos="random_free" from="nt19_nt14" to="nt21_np15" begin="0" end="1" departLane="0" departSpeed="random" arrivalPos ="10" number="6" type="type1"/>
  <flow id="i_111" departPos="random_free" from="nt19_nt24" to="nt25_np10" begin="0" end="1" departLane="0" departSpeed="random" arrivalPos ="10" number="6" type="type1"/>
  <flow id="i_112" departPos="random_free" from="nt24_nt19" to="nt1_np20" begin="0" end="1" departLane="0" departSpeed="random" arrivalPos ="10" number="6" type="type1"/>
  <flow id="i_113" departPos="random_free" from="nt5_nt10" to="nt25_np11" begin="0" end="1" departLane="0" departSpeed="random" arrivalPos ="10" number="6" type="type1"/>
  <flow id="i_114" departPos="random_free" from="nt10_nt5" to="nt10_np7" begin="0" end="1" departLane="0" departSpeed="random" arrivalPos ="10" number="6" type="type1"/>
  <flow id="i_115" departPos="random_free" from="nt10_nt15" to="nt24_np12" begin="0" end="1" departLane="0" departSpeed="random" arrivalPos ="10" number="6" type="type1"/>
  <flow id="i_116" departPos="random_free" from="nt15_nt10" to="nt25_np11" begin="0" end="1" departLane="0" departSpeed="random" arrivalPos ="10" number="6" type="type1"/>
  <flow id="i_117" departPos="random_free" from="nt15_nt20" to="nt1_np1" begin="0" end="1" departLane="0" departSpeed="random" arrivalPos ="10" number="6" type="type1"/>
  <flow id="i_118" departPos="random_free" from="nt20_nt15" to="nt22_np14" begin="0" end="1" departLane="0" departSpeed="random" arrivalPos ="10" number="6" type="type1"/>
  <flow id="i_119" departPos="random_free" from="nt20_nt25" to="nt25_np10" begin="0" end="1" departLane="0" departSpeed="random" arrivalPos ="10" number="6" type="type1"/>
  <flow id="i_120" departPos="random_free" from="nt25_nt20" to="nt6_np19" begin="0" end="1" departLane="0" departSpeed="random" arrivalPos ="10" number="6" type="type1"/>
  <flow id="f_0_0" departPos="random_free" from="np12_nt24" to="nt2_np2" begin="0" end="300" vehsPerHour="240" type="type1"/>
  <flow id="f_0_1" departPos="random_free" from="np13_nt23" to="nt3_np3" begin="0" end="300" vehsPerHour="240" type="type1"/>
  <flow id="f_0_2" departPos="random_free" from="np14_nt22" to="nt4_np4" begin="0" end="300" vehsPerHour="240" type="type1"/>
  <flow id="f_0_3" departPos="random_free" from="np16_nt21" to="nt5_np6" begin="0" end="300" vehsPerHour="400" type="type1"/>
  <flow id="f_0_4" departPos="random_free" from="np18_nt11" to="nt15_np8" begin="0" end="300" vehsPerHour="400" type="type1"/>
  <flow id="f_0_5" departPos="random_free" from="np20_nt1" to="nt25_np10" begin="0" end="300" vehsPerHour="400" type="type1"/>
  <flow id="f_1_0" departPos="random_free" from="np12_nt24" to="nt2_np2" begin="300" end="600" vehsPerHour="420" type="type1"/>
  <flow id="f_1_1" departPos="random_free" from="np13_nt23" to="nt3_np3" begin="300" end="600" vehsPerHour="420" type="type1"/>
  <flow id="f_1_2" departPos="random_free" from="np14_nt22" to="nt4_np4" begin="300" end="600" vehsPerHour="420" type="type1"/>
  <flow id="f_1_3" departPos="random_free" from="np16_nt21" to="nt5_np6" begin="300" end="600" vehsPerHour="700" type="type1"/>
  <flow id="f_1_4" departPos="random_free" from="np18_nt11" to="nt15_np8" begin="300" end="600" vehsPerHour="700" type="type1"/>
  <flow id="f_1_5" departPos="random_free" from="np20_nt1" to="nt25_np10" begin="300" end="600" vehsPerHour="700" type="type1"/>
  <flow id="f_2_0" departPos="random_free" from="np12_nt24" to="nt2_np2" begin="600" end="900" vehsPerHour="540" type="type1"/>
  <flow id="f_2_1" departPos="random_free" from="np13_nt23" to="nt3_np3" begin="600" end="900" vehsPerHour="540" type="type1"/>
  <flow id="f_2_2" departPos="random_free" from="np14_nt22" to="nt4_np4" begin="600" end="900" vehsPerHour="540" type="type1"/>
  <flow id="f_2_3" departPos="random_free" from="np16_nt21" to="nt5_np6" begin="600" end="900" vehsPerHour="900" type="type1"/>
  <flow id="f_2_4" departPos="random_free" from="np18_nt11" to="nt15_np8" begin="600" end="900" vehsPerHour="900" type="type1"/>
  <flow id="f_2_5" departPos="random_free" from="np20_nt1" to="nt25_np10" begin="600" end="900" vehsPerHour="900" type="type1"/>
  <flow id="f_3_0" departPos="random_free" from="np12_nt24" to="nt2_np2" begin="900" end="1200" vehsPerHour="600" type="type1"/>
  <flow id="f_3_1" departPos="random_free" from="np13_nt23" to="nt3_np3" begin="900" end="1200" vehsPerHour="600" type="type1"/>
  <flow id="f_3_2" departPos="random_free" from="np14_nt22" to="nt4_np4" begin="900" end="1200" vehsPerHour="600" type="type1"/>
  <flow id="f_3_3" departPos="random_free" from="np16_nt21" to="nt5_np6" begin="900" end="1200" vehsPerHour="1000" type="type1"/>
  <flow id="f_3_4" departPos="random_free" from="np18_nt11" to="nt15_np8" begin="900" end="1200" vehsPerHour="1000" type="type1"/>
  <flow id="f_3_5" departPos="random_free" from="np20_nt1" to="nt25_np10" begin="900" end="1200" vehsPerHour="1000" type="type1"/>
  <flow id="f_3_6" departPos="random_free" from="np2_nt2" to="nt22_np14" begin="900" end="1200" vehsPerHour="360" type="type1"/>
  <flow id="f_3_7" departPos="random_free" from="np3_nt3" to="nt23_np13" begin="900" end="1200" vehsPerHour="360" type="type1"/>
  <flow id="f_3_8" departPos="random_free" from="np4_nt4" to="nt24_np12" begin="900" end="1200" vehsPerHour="360" type="type1"/>
  <flow id="f_3_9" departPos="random_free" from="np6_nt5" to="nt1_np20" begin="900" end="1200" vehsPerHour="600" type="type1"/>
  <flow id="f_3_10" departPos="random_free" from="np8_nt15" to="nt11_np18" begin="900" end="1200" vehsPerHour="600" type="type1"/>
  <flow id="f_3_11" departPos="random_free" from="np10_nt25" to="nt21_np16" begin="900" end="1200" vehsPerHour="600" type="type1"/>
  <flow id="f_4_0" departPos="random_free" from="np12_nt24" to="nt2_np2" begin="1200" end="1500" vehsPerHour="450" type="type1"/>
  <flow id="f_4_1" departPos="random_free" from="np13_nt23" to="nt3_np3" begin="1200" end="1500" vehsPerHour="450" type="type1"/>
  <flow id="f_4_2" departPos="random_free" from="np14_nt22" to="nt4_np4" begin="1200" end="1500" vehsPerHour="450" type="type1"/>
  <flow id="f_4_3" departPos="random_free" from="np16_nt21" to="nt5_np6" begin="1200" end="1500" vehsPerHour="750" type="type1"/>
  <flow id="f_4_4" departPos="random_free" from="np18_nt11" to="nt15_np8" begin="1200" end="1500" vehsPerHour="750" type="type1"/>
  <flow id="f_4_5" departPos="random_free" from="np20_nt1" to="nt25_np10" begin="1200" end="1500" vehsPerHour="750" type="type1"/>
  <flow id="f_4_6" departPos="random_free" from="np2_nt2" to="nt22_np14" begin="1200" end="1500" vehsPerHour="960" type="type1"/>
  <flow id="f_4_7" departPos="random_free" from="np3_nt3" to="nt23_np13" begin="1200" end="1500" vehsPerHour="960" type="type1"/>
  <flow id="f_4_8" departPos="random_free" from="np4_nt4" to="nt24_np12" begin="1200" end="1500" vehsPerHour="960" type="type1"/>
  <flow id="f_4_9" departPos="random_free" from="np6_nt5" to="nt1_np20" begin="1200" end="1500" vehsPerHour="1600" type="type1"/>
  <flow id="f_4_10" departPos="random_free" from="np8_nt15" to="nt11_np18" begin="1200" end="1500" vehsPerHour="1600" type="type1"/>
  <flow id="f_4_11" departPos="random_free" from="np10_nt25" to="nt21_np16" begin="1200" end="1500" vehsPerHour="1600" type="type1"/>
  <flow id="f_5_0" departPos="random_free" from="np12_nt24" to="nt2_np2" begin="1500" end="1800" vehsPerHour="300" type="type1"/>
  <flow id="f_5_1" departPos="random_free" from="np13_nt23" to="nt3_np3" begin="1500" end="1800" vehsPerHour="300" type="type1"/>
  <flow id="f_5_2" departPos="random_free" from="np14_nt22" to="nt4_np4" begin="1500" end="1800" vehsPerHour="300" type="type1"/>
  <flow id="f_5_3" departPos="random_free" from="np16_nt21" to="nt5_np6" begin="1500" end="1800" vehsPerHour="500" type="type1"/>
  <flow id="f_5_4" departPos="random_free" from="np18_nt11" to="nt15_np8" begin="1500" end="1800" vehsPerHour="500" type="type1"/>
  <flow id="f_5_5" departPos="random_free" from="np20_nt1" to="nt25_np10" begin="1500" end="1800" vehsPerHour="500" type="type1"/>
  <flow id="f_5_6" departPos="random_free" from="np2_nt2" to="nt22_np14" begin="1500" end="1800" vehsPerHour="1080" type="type1"/>
  <flow id="f_5_7" departPos="random_free" from="np3_nt3" to="nt23_np13" begin="1500" end="1800" vehsPerHour="1080" type="type1"/>
  <flow id="f_5_8" departPos="random_free" from="np4_nt4" to="nt24_np12" begin="1500" end="1800" vehsPerHour="1080" type="type1"/>
  <flow id="f_5_9" departPos="random_free" from="np6_nt5" to="nt1_np20" begin="1500" end="1800" vehsPerHour="1800" type="type1"/>
  <flow id="f_5_10" departPos="random_free" from="np8_nt15" to="nt11_np18" begin="1500" end="1800" vehsPerHour="1800" type="type1"/>
  <flow id="f_5_11" departPos="random_free" from="np10_nt25" to="nt21_np16" begin="1500" end="1800" vehsPerHour="1800" type="type1"/>
  <flow id="f_6_0" departPos="random_free" from="np12_nt24" to="nt2_np2" begin="1800" end="2100" vehsPerHour="150" type="type1"/>
  <flow id="f_6_1" departPos="random_free" from="np13_nt23" to="nt3_np3" begin="1800" end="2100" vehsPerHour="150" type="type1"/>
  <flow id="f_6_2" departPos="random_free" from="np14_nt22" to="nt4_np4" begin="1800" end="2100" vehsPerHour="150" type="type1"/>
  <flow id="f_6_3" departPos="random_free" from="np16_nt21" to="nt5_np6" begin="1800" end="2100" vehsPerHour="250" type="type1"/>
  <flow id="f_6_4" departPos="random_free" from="np18_nt11" to="nt15_np8" begin="1800" end="2100" vehsPerHour="250" type="type1"/>
  <flow id="f_6_5" departPos="random_free" from="np20_nt1" to="nt25_np10" begin="1800" end="2100" vehsPerHour="250" type="type1"/>
  <flow id="f_6_6" departPos="random_free" from="np2_nt2" to="nt22_np14" begin="1800" end="2100" vehsPerHour="1200" type="type1"/>
  <flow id="f_6_7" departPos="random_free" from="np3_nt3" to="nt23_np13" begin="1800" end="2100" vehsPerHour="1200" type="type1"/>
  <flow id="f_6_8" departPos="random_free" from="np4_nt4" to="nt24_np12" begin="1800" end="2100" vehsPerHour="1200" type="type1"/>
  <flow id="f_6_9" departPos="random_free" from="np6_nt5" to="nt1_np20" begin="1800" end="2100" vehsPerHour="2000" type="type1"/>
  <flow id="f_6_10" departPos="random_free" from="np8_nt15" to="nt11_np18" begin="1800" end="2100" vehsPerHour="2000" type="type1"/>
  <flow id="f_6_11" departPos="random_free" from="np10_nt25" to="nt21_np16" begin="1800" end="2100" vehsPerHour="2000" type="type1"/>
  <flow id="f_7_0" departPos="random_free" from="np2_nt2" to="nt22_np14" begin="2100" end="2400" vehsPerHour="960" type="type1"/>
  <flow id="f_7_1" departPos="random_free" from="np3_nt3" to="nt23_np13" begin="2100" end="2400" vehsPerHour="960" type="type1"/>
  <flow id="f_7_2" departPos="random_free" from="np4_nt4" to="nt24_np12" begin="2100" end="2400" vehsPerHour="960" type="type1"/>
  <flow id="f_7_3" departPos="random_free" from="np6_nt5" to="nt1_np20" begin="2100" end="2400" vehsPerHour="1600" type="type1"/>
  <flow id="f_7_4" departPos="random_free" from="np8_nt15" to="nt11_np18" begin="2100" end="2400" vehsPerHour="1600" type="type1"/>
  <flow id="f_7_5" departPos="random_free" from="np10_nt25" to="nt21_np16" begin="2100" end="2400" vehsPerHour="1600" type="type1"/>
  <flow id="f_8_0" departPos="random_free" from="np2_nt2" to="nt22_np14" begin="2400" end="2700" vehsPerHour="720" type="type1"/>