<?xml version="1.0" encoding="UTF-8"?>

<!-- generated on 03/10/21 20:02:34 by Eclipse SUMO netconvert Version 1.6.0
<configuration xmlns:xsi="http://www.w3.org/2001/XMLSchema-instance" xsi:noNamespaceSchemaLocation="http://sumo.dlr.de/xsd/netconvertConfiguration.xsd">

    <input>
        <node-files value="exp.nod.xml"/>
        <edge-files value="exp.edg.xml"/>
        <connection-files value="exp.con.xml"/>
        <tllogic-files value="exp.tll.xml"/>
        <type-files value="exp.typ.xml"/>
    </input>

    <output>
        <output-file value="exp.net.xml"/>
    </output>

    <report>
        <aggregate-warnings value="5"/>
    </report>

</configuration>
-->

<net version="1.6" junctionCornerDetail="5" limitTurnSpeed="5.50" xmlns:xsi="http://www.w3.org/2001/XMLSchema-instance" xsi:noNamespaceSchemaLocation="http://sumo.dlr.de/xsd/net_file.xsd">

    <location netOffset="185.00,185.00" convBoundary="0.00,0.00,1170.00,1170.00" origBoundary="-185.00,-185.00,985.00,985.00" projParameter="!"/>

    <type id="a" priority="2" numLanes="2" speed="20.00"/>
    <type id="b" priority="1" numLanes="1" speed="11.00"/>

    <edge id=":np1_0" function="internal">
        <lane id=":np1_0_0" index="0" speed="3.65" length="4.67" shape="183.40,0.00 184.20,-1.20 185.00,-1.60 185.80,-1.20 186.60,0.00"/>
    </edge>
    <edge id=":np10_0" function="internal">
        <lane id=":np10_0_0" index="0" speed="3.65" length="4.67" shape="1170.00,983.40 1171.20,984.20 1171.60,985.00 1171.20,985.80 1170.00,986.60"/>
    </edge>
    <edge id=":np11_0" function="internal">
        <lane id=":np11_0_0" index="0" speed="3.65" length="4.67" shape="986.60,1170.00 985.80,1171.20 985.00,1171.60 984.20,1171.20 983.40,1170.00"/>
    </edge>
    <edge id=":np12_0" function="internal">
        <lane id=":np12_0_0" index="0" speed="3.65" length="4.67" shape="786.60,1170.00 785.80,1171.20 785.00,1171.60 784.20,1171.20 783.40,1170.00"/>
    </edge>
    <edge id=":np13_0" function="internal">
        <lane id=":np13_0_0" index="0" speed="3.65" length="4.67" shape="586.60,1170.00 585.80,1171.20 585.00,1171.60 584.20,1171.20 583.40,1170.00"/>
    </edge>
    <edge id=":np14_0" function="internal">
        <lane id=":np14_0_0" index="0" speed="3.65" length="4.67" shape="386.60,1170.00 385.80,1171.20 385.00,1171.60 384.20,1171.20 383.40,1170.00"/>
    </edge>
    <edge id=":np15_0" function="internal">
        <lane id=":np15_0_0" index="0" speed="3.65" length="4.67" shape="186.60,1170.00 185.80,1171.20 185.00,1171.60 184.20,1171.20 183.40,1170.00"/>
    </edge>
    <edge id=":np16_0" function="internal">
        <lane id=":np16_0_0" index="0" speed="3.65" length="4.67" shape="0.00,986.60 -1.20,985.80 -1.60,985.00 -1.20,984.20 0.00,983.40"/>
    </edge>
    <edge id=":np17_0" function="internal">
        <lane id=":np17_0_0" index="0" speed="3.65" length="4.67" shape="0.00,786.60 -1.20,785.80 -1.60,785.00 -1.20,784.20 0.00,783.40"/>
    </edge>
    <edge id=":np18_0" function="internal">
        <lane id=":np18_0_0" index="0" speed="3.65" length="4.67" shape="0.00,586.60 -1.20,585.80 -1.60,585.00 -1.20,584.20 0.00,583.40"/>
    </edge>
    <edge id=":np19_0" function="internal">
        <lane id=":np19_0_0" index="0" speed="3.65" length="4.67" shape="0.00,386.60 -1.20,385.80 -1.60,385.00 -1.20,384.20 0.00,383.40"/>
    </edge>
    <edge id=":np2_0" function="internal">
        <lane id=":np2_0_0" index="0" speed="3.65" length="4.67" shape="383.40,0.00 384.20,-1.20 385.00,-1.60 385.80,-1.20 386.60,0.00"/>
    </edge>
    <edge id=":np20_0" function="internal">
        <lane id=":np20_0_0" index="0" speed="3.65" length="4.67" shape="0.00,186.60 -1.20,185.80 -1.60,185.00 -1.20,184.20 0.00,183.40"/>
    </edge>
    <edge id=":np3_0" function="internal">
        <lane id=":np3_0_0" index="0" speed="3.65" length="4.67" shape="583.40,0.00 584.20,-1.20 585.00,-1.60 585.80,-1.20 586.60,0.00"/>
    </edge>
    <edge id=":np4_0" function="internal">
        <lane id=":np4_0_0" index="0" speed="3.65" length="4.67" shape="783.40,0.00 784.20,-1.20 785.00,-1.60 785.80,-1.20 786.60,0.00"/>
    </edge>
    <edge id=":np5_0" function="internal">
        <lane id=":np5_0_0" index="0" speed="3.65" length="4.67" shape="983.40,0.00 984.20,-1.20 985.00,-1.60 985.80,-1.20 986.60,0.00"/>
    </edge>
    <edge id=":np6_0" function="internal">
        <lane id=":np6_0_0" index="0" speed="3.65" length="4.67" shape="1170.00,183.40 1171.20,184.20 1171.60,185.00 1171.20,185.80 1170.00,186.60"/>
    </edge>
    <edge id=":np7_0" function="internal">
        <lane id=":np7_0_0" index="0" speed="3.65" length="4.67" shape="1170.00,383.40 1171.20,384.20 1171.60,385.00 1171.20,385.80 1170.00,386.60"/>
    </edge>
    <edge id=":np8_0" function="internal">
        <lane id=":np8_0_0" index="0" speed="3.65" length="4.67" shape="1170.00,583.40 1171.20,584.20 1171.60,585.00 1171.20,585.80 1170.00,586.60"/>
    </edge>
    <edge id=":np9_0" function="internal">
        <lane id=":np9_0_0" index="0" speed="3.65" length="4.67" shape="1170.00,783.40 1171.20,784.20 1171.60,785.00 1171.20,785.80 1170.00,786.60"/>
    </edge>
    <edge id=":nt1_0" function="internal">
        <lane id=":nt1_0_0" index="0" speed="6.51" length="9.03" shape="183.40,195.40 183.05,192.95 182.00,191.20 180.25,190.15 177.80,189.80"/>
    </edge>
    <edge id=":nt1_1" function="internal">
        <lane id=":nt1_1_0" index="0" speed="11.00" length="20.80" shape="183.40,195.40 183.40,174.60"/>
    </edge>
    <edge id=":nt1_2" function="internal">
        <lane id=":nt1_2_0" index="0" speed="8.67" length="7.89" shape="183.40,195.40 183.95,190.15 185.00,187.76"/>
    </edge>
    <edge id=":nt1_12" function="internal">
        <lane id=":nt1_12_0" index="0" speed="8.67" length="8.97" shape="185.00,187.76 185.60,186.40 188.35,184.15 192.20,183.40"/>
    </edge>
    <edge id=":nt1_3" function="internal">
        <lane id=":nt1_3_0" index="0" speed="6.51" length="9.03" shape="192.20,189.80 189.75,190.15 188.00,191.20 186.95,192.95 186.60,195.40"/>
    </edge>
    <edge id=":nt1_4" function="internal">
        <lane id=":nt1_4_0" index="0" speed="20.00" length="14.40" shape="192.20,189.80 177.80,189.80"/>
    </edge>
    <edge id=":nt1_5" function="internal">
        <lane id=":nt1_5_0" index="0" speed="8.67" length="16.85" shape="192.20,186.60 188.35,185.85 185.60,183.60 183.95,179.85 183.40,174.60"/>
    </edge>
    <edge id=":nt1_6" function="internal">
        <lane id=":nt1_6_0" index="0" speed="6.51" length="9.03" shape="186.60,174.60 186.95,177.05 188.00,178.80 189.75,179.85 192.20,180.20"/>
    </edge>
    <edge id=":nt1_7" function="internal">
        <lane id=":nt1_7_0" index="0" speed="11.00" length="20.80" shape="186.60,174.60 186.60,195.40"/>
    </edge>
    <edge id=":nt1_8" function="internal">
        <lane id=":nt1_8_0" index="0" speed="8.67" length="7.89" shape="186.60,174.60 186.05,179.85 185.00,182.24"/>
    </edge>
    <edge id=":nt1_13" function="internal">
        <lane id=":nt1_13_0" index="0" speed="8.67" length="8.97" shape="185.00,182.24 184.40,183.60 181.65,185.85 177.80,186.60"/>
    </edge>
    <edge id=":nt1_9" function="internal">
        <lane id=":nt1_9_0" index="0" speed="6.51" length="9.03" shape="177.80,180.20 180.25,179.85 182.00,178.80 183.05,177.05 183.40,174.60"/>
    </edge>
    <edge id=":nt1_10" function="internal">
        <lane id=":nt1_10_0" index="0" speed="20.00" length="14.40" shape="177.80,180.20 192.20,180.20"/>
    </edge>
    <edge id=":nt1_11" function="internal">
        <lane id=":nt1_11_0" index="0" speed="8.67" length="16.85" shape="177.80,183.40 181.65,184.15 184.40,186.40 186.05,190.15 186.60,195.40"/>
    </edge>
    <edge id=":nt10_0" function="internal">
        <lane id=":nt10_0_0" index="0" speed="6.51" length="9.03" shape="983.40,395.40 983.05,392.95 982.00,391.20 980.25,390.15 977.80,389.80"/>
    </edge>
    <edge id=":nt10_1" function="internal">
        <lane id=":nt10_1_0" index="0" speed="11.00" length="20.80" shape="983.40,395.40 983.40,374.60"/>
    </edge>
    <edge id=":nt10_2" function="internal">
        <lane id=":nt10_2_0" index="0" speed="8.67" length="7.89" shape="983.40,395.40 983.95,390.15 985.00,387.76"/>
    </edge>
    <edge id=":nt10_12" function="internal">
        <lane id=":nt10_12_0" index="0" speed="8.67" length="8.97" shape="985.00,387.76 985.60,386.40 988.35,384.15 992.20,383.40"/>
    </edge>
    <edge id=":nt10_3" function="internal">
        <lane id=":nt10_3_0" index="0" speed="6.51" length="9.03" shape="992.20,389.80 989.75,390.15 988.00,391.20 986.95,392.95 986.60,395.40"/>
    </edge>
    <edge id=":nt10_4" function="internal">
        <lane id=":nt10_4_0" index="0" speed="20.00" length="14.40" shape="992.20,389.80 977.80,389.80"/>
    </edge>
    <edge id=":nt10_5" function="internal">
        <lane id=":nt10_5_0" index="0" speed="8.67" length="16.85" shape="992.20,386.60 988.35,385.85 985.60,383.60 983.95,379.85 983.40,374.60"/>
    </edge>
    <edge id=":nt10_6" function="internal">
        <lane id=":nt10_6_0" index="0" speed="6.51" length="9.03" shape="986.60,374.60 986.95,377.05 988.00,378.80 989.75,379.85 992.20,380.20"/>
    </edge>
    <edge id=":nt10_7" function="internal">
        <lane id=":nt10_7_0" index="0" speed="11.00" length="20.80" shape="986.60,374.60 986.60,395.40"/>
    </edge>
    <edge id=":nt10_8" function="internal">
        <lane id=":nt10_8_0" index="0" speed="8.67" length="7.89" shape="986.60,374.60 986.05,379.85 985.00,382.24"/>
    </edge>
    <edge id=":nt10_13" function="internal">
        <lane id=":nt10_13_0" index="0" speed="8.67" length="8.97" shape="985.00,382.24 984.40,383.60 981.65,385.85 977.80,386.60"/>
    </edge>
    <edge id=":nt10_9" function="internal">
        <lane id=":nt10_9_0" index="0" speed="6.51" length="9.03" shape="977.80,380.20 980.25,379.85 982.00,378.80 983.05,377.05 983.40,374.60"/>
    </edge>
    <edge id=":nt10_10" function="internal">
        <lane id=":nt10_10_0" index="0" speed="20.00" length="14.40" shape="977.80,380.20 992.20,380.20"/>
    </edge>
    <edge id=":nt10_11" function="internal">
        <lane id=":nt10_11_0" index="0" speed="8.67" length="16.85" shape="977.80,383.40 981.65,384.15 984.40,386.40 986.05,390.15 986.60,395.40"/>
    </edge>
    <edge id=":nt11_0" function="internal">
        <lane id=":nt11_0_0" index="0" speed="6.51" length="9.03" shape="183.40,595.40 183.05,592.95 182.00,591.20 180.25,590.15 177.80,589.80"/>
    </edge>
    <edge id=":nt11_1" function="internal">
        <lane id=":nt11_1_0" index="0" speed="11.00" length="20.80" shape="183.40,595.40 183.40,574.60"/>
    </edge>
    <edge id=":nt11_2" function="internal">
        <lane id=":nt11_2_0" index="0" speed="8.67" length="7.89" shape="183.40,595.40 183.95,590.15 185.00,587.76"/>
    </edge>
    <edge id=":nt11_12" function="internal">
        <lane id=":nt11_12_0" index="0" speed="8.67" length="8.97" shape="185.00,587.76 185.60,586.40 188.35,584.15 192.20,583.40"/>
    </edge>
    <edge id=":nt11_3" function="internal">
        <lane id=":nt11_3_0" index="0" speed="6.51" length="9.03" shape="192.20,589.80 189.75,590.15 188.00,591.20 186.95,592.95 186.60,595.40"/>
    </edge>
    <edge id=":nt11_4" function="internal">
        <lane id=":nt11_4_0" index="0" speed="20.00" length="14.40" shape="192.20,589.80 177.80,589.80"/>
    </edge>
    <edge id=":nt11_5" function="internal">
        <lane id=":nt11_5_0" index="0" speed="8.67" length="16.85" shape="192.20,586.60 188.35,585.85 185.60,583.60 183.95,579.85 183.40,574.60"/>
    </edge>
    <edge id=":nt11_6" function="internal">
        <lane id=":nt11_6_0" index="0" speed="6.51" length="9.03" shape="186.60,574.60 186.95,577.05 188.00,578.80 189.75,579.85 192.20,580.20"/>
    </edge>
    <edge id=":nt11_7" function="internal">
        <lane id=":nt11_7_0" index="0" speed="11.00" length="20.80" shape="186.60,574.60 186.60,595.40"/>
    </edge>
    <edge id=":nt11_8" function="internal">
        <lane id=":nt11_8_0" index="0" speed="8.67" length="7.89" shape="186.60,574.60 186.05,579.85 185.00,582.24"/>
    </edge>
    <edge id=":nt11_13" function="internal">
        <lane id=":nt11_13_0" index="0" speed="8.67" length="8.97" shape="185.00,582.24 184.40,583.60 181.65,585.85 177.80,586.60"/>
    </edge>
    <edge id=":nt11_9" function="internal">
        <lane id=":nt11_9_0" index="0" speed="6.51" length="9.03" shape="177.80,580.20 180.25,579.85 182.00,578.80 183.05,577.05 183.40,574.60"/>
    </edge>
    <edge id=":nt11_10" function="internal">
        <lane id=":nt11_10_0" index="0" speed="20.00" length="14.40" shape="177.80,580.20 192.20,580.20"/>
    </edge>
    <edge id=":nt11_11" function="internal">
        <lane id=":nt11_11_0" index="0" speed="8.67" length="16.85" shape="177.80,583.40 181.65,584.15 184.40,586.40 186.05,590.15 186.60,595.40"/>
    </edge>
    <edge id=":nt12_0" function="internal">
        <lane id=":nt12_0_0" index="0" speed="6.51" length="9.03" shape="383.40,595.40 383.05,592.95 382.00,591.20 380.25,590.15 377.80,589.80"/>
    </edge>
    <edge id=":nt12_1" function="internal">
        <lane id=":nt12_1_0" index="0" speed="11.00" length="20.80" shape="383.40,595.40 383.40,574.60"/>
    </edge>
    <edge id=":nt12_2" function="internal">
        <lane id=":nt12_2_0" index="0" speed="8.67" length="7.89" shape="383.40,595.40 383.95,590.15 385.00,587.76"/>
    </edge>
    <edge id=":nt12_12" function="internal">
        <lane id=":nt12_12_0" index="0" speed="8.67" length="8.97" shape="385.00,587.76 385.60,586.40 388.35,584.15 392.20,583.40"/>
    </edge>
    <edge id=":nt12_3" function="internal">
        <lane id=":nt12_3_0" index="0" speed="6.51" length="9.03" shape="392.20,589.80 389.75,590.15 388.00,591.20 386.95,592.95 386.60,595.40"/>
    </edge>
    <edge id=":nt12_4" function="internal">
        <lane id=":nt12_4_0" index="0" speed="20.00" length="14.40" shape="392.20,589.80 377.80,589.80"/>
    </edge>
    <edge id=":nt12_5" function="internal">
        <lane id=":nt12_5_0" index="0" speed="8.67" length="16.85" shape="392.20,586.60 388.35,585.85 385.60,583.60 383.95,579.85 383.40,574.60"/>
    </edge>
    <edge id=":nt12_6" function="internal">
        <lane id=":nt12_6_0" index="0" speed="6.51" length="9.03" shape="386.60,574.60 386.95,577.05 388.00,578.80 389.75,579.85 392.20,580.20"/>
    </edge>
    <edge id=":nt12_7" function="internal">
        <lane id=":nt12_7_0" index="0" speed="11.00" length="20.80" shape="386.60,574.60 386.60,595.40"/>
    </edge>
    <edge id=":nt12_8" function="internal">
        <lane id=":nt12_8_0" index="0" speed="8.67" length="7.89" shape="386.60,574.60 386.05,579.85 385.00,582.24"/>
    </edge>
    <edge id=":nt12_13" function="internal">
        <lane id=":nt12_13_0" index="0" speed="8.67" length="8.97" shape="385.00,582.24 384.40,583.60 381.65,585.85 377.80,586.60"/>
    </edge>
    <edge id=":nt12_9" function="internal">
        <lane id=":nt12_9_0" index="0" speed="6.51" length="9.03" shape="377.80,580.20 380.25,579.85 382.00,578.80 383.05,577.05 383.40,574.60"/>
    </edge>
    <edge id=":nt12_10" function="internal">
        <lane id=":nt12_10_0" index="0" speed="20.00" length="14.40" shape="377.80,580.20 392.20,580.20"/>
    </edge>
    <edge id=":nt12_11" function="internal">
        <lane id=":nt12_11_0" index="0" speed="8.67" length="16.85" shape="377.80,583.40 381.65,584.15 384.40,586.40 386.05,590.15 386.60,595.40"/>
    </edge>
    <edge id=":nt13_0" function="internal">
        <lane id=":nt13_0_0" index="0" speed="6.51" length="9.03" shape="583.40,595.40 583.05,592.95 582.00,591.20 580.25,590.15 577.80,589.80"/>
    </edge>
    <edge id=":nt13_1" function="internal">
        <lane id=":nt13_1_0" index="0" speed="11.00" length="20.80" shape="583.40,595.40 583.40,574.60"/>
    </edge>
    <edge id=":nt13_2" function="internal">
        <lane id=":nt13_2_0" index="0" speed="8.67" length="7.89" shape="583.40,595.40 583.95,590.15 585.00,587.76"/>
    </edge>
    <edge id=":nt13_12" function="internal">
        <lane id=":nt13_12_0" index="0" speed="8.67" length="8.97" shape="585.00,587.76 585.60,586.40 588.35,584.15 592.20,583.40"/>
    </edge>
    <edge id=":nt13_3" function="internal">
        <lane id=":nt13_3_0" index="0" speed="6.51" length="9.03" shape="592.20,589.80 589.75,590.15 588.00,591.20 586.95,592.95 586.60,595.40"/>
    </edge>
    <edge id=":nt13_4" function="internal">
        <lane id=":nt13_4_0" index="0" speed="20.00" length="14.40" shape="592.20,589.80 577.80,589.80"/>
    </edge>
    <edge id=":nt13_5" function="internal">
        <lane id=":nt13_5_0" index="0" speed="8.67" length="16.85" shape="592.20,586.60 588.35,585.85 585.60,583.60 583.95,579.85 583.40,574.60"/>
    </edge>
    <edge id=":nt13_6" function="internal">
        <lane id=":nt13_6_0" index="0" speed="6.51" length="9.03" shape="586.60,574.60 586.95,577.05 588.00,578.80 589.75,579.85 592.20,580.20"/>
    </edge>
    <edge id=":nt13_7" function="internal">
        <lane id=":nt13_7_0" index="0" speed="11.00" length="20.80" shape="586.60,574.60 586.60,595.40"/>
    </edge>
    <edge id=":nt13_8" function="internal">
        <lane id=":nt13_8_0" index="0" speed="8.67" length="7.89" shape="586.60,574.60 586.05,579.85 585.00,582.24"/>
    </edge>
    <edge id=":nt13_13" function="internal">
        <lane id=":nt13_13_0" index="0" speed="8.67" length="8.97" shape="585.00,582.24 584.40,583.60 581.65,585.85 577.80,586.60"/>
    </edge>
    <edge id=":nt13_9" function="internal">
        <lane id=":nt13_9_0" index="0" speed="6.51" length="9.03" shape="577.80,580.20 580.25,579.85 582.00,578.80 583.05,577.05 583.40,574.60"/>
    </edge>
    <edge id=":nt13_10" function="internal">
        <lane id=":nt13_10_0" index="0" speed="20.00" length="14.40" shape="577.80,580.20 592.20,580.20"/>
    </edge>
    <edge id=":nt13_11" function="internal">
        <lane id=":nt13_11_0" index="0" speed="8.67" length="16.85" shape="577.80,583.40 581.65,584.15 584.40,586.40 586.05,590.15 586.60,595.40"/>
    </edge>
    <edge id=":nt14_0" function="internal">
        <lane id=":nt14_0_0" index="0" speed="6.51" length="9.03" shape="783.40,595.40 783.05,592.95 782.00,591.20 780.25,590.15 777.80,589.80"/>
    </edge>
    <edge id=":nt14_1" function="internal">
        <lane id=":nt14_1_0" index="0" speed="11.00" length="20.80" shape="783.40,595.40 783.40,574.60"/>
    </edge>
    <edge id=":nt14_2" function="internal">
        <lane id=":nt14_2_0" index="0" speed="8.67" length="7.89" shape="783.40,595.40 783.95,590.15 785.00,587.76"/>
    </edge>
    <edge id=":nt14_12" function="internal">
        <lane id=":nt14_12_0" index="0" speed="8.67" length="8.97" shape="785.00,587.76 785.60,586.40 788.35,584.15 792.20,583.40"/>
    </edge>
    <edge id=":nt14_3" function="internal">
        <lane id=":nt14_3_0" index="0" speed="6.51" length="9.03" shape="792.20,589.80 789.75,590.15 788.00,591.20 786.95,592.95 786.60,595.40"/>
    </edge>
    <edge id=":nt14_4" function="internal">
        <lane id=":nt14_4_0" index="0" speed="20.00" length="14.40" shape="792.20,589.80 777.80,589.80"/>
    </edge>
    <edge id=":nt14_5" function="internal">
        <lane id=":nt14_5_0" index="0" speed="8.67" length="16.85" shape="792.20,586.60 788.35,585.85 785.60,583.60 783.95,579.85 783.40,574.60"/>
    </edge>
    <edge id=":nt14_6" function="internal">
        <lane id=":nt14_6_0" index="0" speed="6.51" length="9.03" shape="786.60,574.60 786.95,577.05 788.00,578.80 789.75,579.85 792.20,580.20"/>
    </edge>
    <edge id=":nt14_7" function="internal">
        <lane id=":nt14_7_0" index="0" speed="11.00" length="20.80" shape="786.60,574.60 786.60,595.40"/>
    </edge>
    <edge id=":nt14_8" function="internal">
        <lane id=":nt14_8_0" index="0" speed="8.67" length="7.89" shape="786.60,574.60 786.05,579.85 785.00,582.24"/>
    </edge>
    <edge id=":nt14_13" function="internal">
        <lane id=":nt14_13_0" index="0" speed="8.67" length="8.97" shape="785.00,582.24 784.40,583.60 781.65,585.85 777.80,586.60"/>
    </edge>
    <edge id=":nt14_9" function="internal">
        <lane id=":nt14_9_0" index="0" speed="6.51" length="9.03" shape="777.80,580.20 780.25,579.85 782.00,578.80 783.05,577.05 783.40,574.60"/>
    </edge>
    <edge id=":nt14_10" function="internal">
        <lane id=":nt14_10_0" index="0" speed="20.00" length="14.40" shape="777.80,580.20 792.20,580.20"/>
    </edge>
    <edge id=":nt14_11" function="internal">
        <lane id=":nt14_11_0" index="0" speed="8.67" length="16.85" shape="777.80,583.40 781.65,584.15 784.40,586.40 786.05,590.15 786.60,595.40"/>
    </edge>
    <edge id=":nt15_0" function="internal">
        <lane id=":nt15_0_0" index="0" speed="6.51" length="9.03" shape="983.40,595.40 983.05,592.95 982.00,591.20 980.25,590.15 977.80,589.80"/>
    </edge>
    <edge id=":nt15_1" function="internal">
        <lane id=":nt15_1_0" index="0" speed="11.00" length="20.80" shape="983.40,595.40 983.40,574.60"/>
    </edge>
    <edge id=":nt15_2" function="internal">
        <lane id=":nt15_2_0" index="0" speed="8.67" length="7.89" shape="983.40,595.40 983.95,590.15 985.00,587.76"/>
    </edge>
    <edge id=":nt15_12" function="internal">
        <lane id=":nt15_12_0" index="0" speed="8.67" length="8.97" shape="985.00,587.76 985.60,586.40 988.35,584.15 992.20,583.40"/>
    </edge>
    <edge id=":nt15_3" function="internal">
        <lane id=":nt15_3_0" index="0" speed="6.51" length="9.03" shape="992.20,589.80 989.75,590.15 988.00,591.20 986.95,592.95 986.60,595.40"/>
    </edge>
    <edge id=":nt15_4" function="internal">
        <lane id=":nt15_4_0" index="0" speed="20.00" length="14.40" shape="992.20,589.80 977.80,589.80"/>
    </edge>
    <edge id=":nt15_5" function="internal">
        <lane id=":nt15_5_0" index="0" speed="8.67" length="16.85" shape="992.20,586.60 988.35,585.85 985.60,583.60 983.95,579.85 983.40,574.60"/>
    </edge>
    <edge id=":nt15_6" function="internal">
        <lane id=":nt15_6_0" index="0" speed="6.51" length="9.03" shape="986.60,574.60 986.95,577.05 988.00,578.80 989.75,579.85 992.20,580.20"/>
    </edge>
    <edge id=":nt15_7" function="internal">
        <lane id=":nt15_7_0" index="0" speed="11.00" length="20.80" shape="986.60,574.60 986.60,595.40"/>
    </edge>
    <edge id=":nt15_8" function="internal">
        <lane id=":nt15_8_0" index="0" speed="8.67" length="7.89" shape="986.60,574.60 986.05,579.85 985.00,582.24"/>
    </edge>
    <edge id=":nt15_13" function="internal">
        <lane id=":nt15_13_0" index="0" speed="8.67" length="8.97" shape="985.00,582.24 984.40,583.60 981.65,585.85 977.80,586.60"/>
    </edge>
    <edge id=":nt15_9" function="internal">
        <lane id=":nt15_9_0" index="0" speed="6.51" length="9.03" shape="977.80,580.20 980.25,579.85 982.00,578.80 983.05,577.05 983.40,574.60"/>
    </edge>
    <edge id=":nt15_10" function="internal">
        <lane id=":nt15_10_0" index="0" speed="20.00" length="14.40" shape="977.80,580.20 992.20,580.20"/>
    </edge>
    <edge id=":nt15_11" function="internal">
        <lane id=":nt15_11_0" index="0" speed="8.67" length="16.85" shape="977.80,583.40 981.65,584.15 984.40,586.40 986.05,590.15 986.60,595.40"/>
    </edge>
    <edge id=":nt16_0" function="internal">
        <lane id=":nt16_0_0" index="0" speed="6.51" length="9.03" shape="183.40,795.40 183.05,792.95 182.00,791.20 180.25,790.15 177.80,789.80"/>
    </edge>
    <edge id=":nt16_1" function="internal">
        <lane id=":nt16_1_0" index="0" speed="11.00" length="20.80" shape="183.40,795.40 183.40,774.60"/>
    </edge>
    <edge id=":nt16_2" function="internal">
        <lane id=":nt16_2_0" index="0" speed="8.67" length="7.89" shape="183.40,795.40 183.95,790.15 185.00,787.76"/>
    </edge>
    <edge id=":nt16_12" function="internal">
        <lane id=":nt16_12_0" index="0" speed="8.67" length="8.97" shape="185.00,787.76 185.60,786.40 188.35,784.15 192.20,783.40"/>
    </edge>
    <edge id=":nt16_3" function="internal">
        <lane id=":nt16_3_0" index="0" speed="6.51" length="9.03" shape="192.20,789.80 189.75,790.15 188.00,791.20 186.95,792.95 186.60,795.40"/>
    </edge>
    <edge id=":nt16_4" function="internal">
        <lane id=":nt16_4_0" index="0" speed="20.00" length="14.40" shape="192.20,789.80 177.80,789.80"/>
    </edge>
    <edge id=":nt16_5" function="internal">
        <lane id=":nt16_5_0" index="0" speed="8.67" length="16.85" shape="192.20,786.60 188.35,785.85 185.60,783.60 183.95,779.85 183.40,774.60"/>
    </edge>
    <edge id=":nt16_6" function="internal">
        <lane id=":nt16_6_0" index="0" speed="6.51" length="9.03" shape="186.60,774.60 186.95,777.05 188.00,778.80 189.75,779.85 192.20,780.20"/>
    </edge>
    <edge id=":nt16_7" function="internal">
        <lane id=":nt16_7_0" index="0" speed="11.00" length="20.80" shape="186.60,774.60 186.60,795.40"/>
    </edge>
    <edge id=":nt16_8" function="internal">
        <lane id=":nt16_8_0" index="0" speed="8.67" length="7.89" shape="186.60,774.60 186.05,779.85 185.00,782.24"/>
    </edge>
    <edge id=":nt16_13" function="internal">
        <lane id=":nt16_13_0" index="0" speed="8.67" length="8.97" shape="185.00,782.24 184.40,783.60 181.65,785.85 177.80,786.60"/>
    </edge>
    <edge id=":nt16_9" function="internal">
        <lane id=":nt16_9_0" index="0" speed="6.51" length="9.03" shape="177.80,780.20 180.25,779.85 182.00,778.80 183.05,777.05 183.40,774.60"/>
    </edge>
    <edge id=":nt16_10" function="internal">
        <lane id=":nt16_10_0" index="0" speed="20.00" length="14.40" shape="177.80,780.20 192.20,780.20"/>
    </edge>
    <edge id=":nt16_11" function="internal">
        <lane id=":nt16_11_0" index="0" speed="8.67" length="16.85" shape="177.80,783.40 181.65,784.15 184.40,786.40 186.05,790.15 186.60,795.40"/>
    </edge>
    <edge id=":nt17_0" function="internal">
        <lane id=":nt17_0_0" index="0" speed="6.51" length="9.03" shape="383.40,795.40 383.05,792.95 382.00,791.20 380.25,790.15 377.80,789.80"/>
    </edge>
    <edge id=":nt17_1" function="internal">
        <lane id=":nt17_1_0" index="0" speed="11.00" length="20.80" shape="383.40,795.40 383.40,774.60"/>
    </edge>
    <edge id=":nt17_2" function="internal">
        <lane id=":nt17_2_0" index="0" speed="8.67" length="7.89" shape="383.40,795.40 383.95,790.15 385.00,787.76"/>
    </edge>
    <edge id=":nt17_12" function="internal">
        <lane id=":nt17_12_0" index="0" speed="8.67" length="8.97" shape="385.00,787.76 385.60,786.40 388.35,784.15 392.20,783.40"/>
    </edge>
    <edge id=":nt17_3" function="internal">
        <lane id=":nt17_3_0" index="0" speed="6.51" length="9.03" shape="392.20,789.80 389.75,790.15 388.00,791.20 386.95,792.95 386.60,795.40"/>
    </edge>
    <edge id=":nt17_4" function="internal">
        <lane id=":nt17_4_0" index="0" speed="20.00" length="14.40" shape="392.20,789.80 377.80,789.80"/>
    </edge>
    <edge id=":nt17_5" function="internal">
        <lane id=":nt17_5_0" index="0" speed="8.67" length="16.85" shape="392.20,786.60 388.35,785.85 385.60,783.60 383.95,779.85 383.40,774.60"/>
    </edge>
    <edge id=":nt17_6" function="internal">
        <lane id=":nt17_6_0" index="0" speed="6.51" length="9.03" shape="386.60,774.60 386.95,777.05 388.00,778.80 389.75,779.85 392.20,780.20"/>
    </edge>
    <edge id=":nt17_7" function="internal">
        <lane id=":nt17_7_0" index="0" speed="11.00" length="20.80" shape="386.60,774.60 386.60,795.40"/>
    </edge>
    <edge id=":nt17_8" function="internal">
        <lane id=":nt17_8_0" index="0" speed="8.67" length="7.89" shape="386.60,774.60 386.05,779.85 385.00,782.24"/>
    </edge>
    <edge id=":nt17_13" function="internal">
        <lane id=":nt17_13_0" index="0" speed="8.67" length="8.97" shape="385.00,782.24 384.40,783.60 381.65,785.85 377.80,786.60"/>
    </edge>
    <edge id=":nt17_9" function="internal">
        <lane id=":nt17_9_0" index="0" speed="6.51" length="9.03" shape="377.80,780.20 380.25,779.85 382.00,778.80 383.05,777.05 383.40,774.60"/>
    </edge>
    <edge id=":nt17_10" function="internal">
        <lane id=":nt17_10_0" index="0" speed="20.00" length="14.40" shape="377.80,780.20 392.20,780.20"/>
    </edge>
    <edge id=":nt17_11" function="internal">
        <lane id=":nt17_11_0" index="0" speed="8.67" length="16.85" shape="377.80,783.40 381.65,784.15 384.40,786.40 386.05,790.15 386.60,795.40"/>
    </edge>
    <edge id=":nt18_0" function="internal">
        <lane id=":nt18_0_0" index="0" speed="6.51" length="9.03" shape="583.40,795.40 583.05,792.95 582.00,791.20 580.25,790.15 577.80,789.80"/>
    </edge>
    <edge id=":nt18_1" function="internal">
        <lane id=":nt18_1_0" index="0" speed="11.00" length="20.80" shape="583.40,795.40 583.40,774.60"/>
    </edge>
    <edge id=":nt18_2" function="internal">
        <lane id=":nt18_2_0" index="0" speed="8.67" length="7.89" shape="583.40,795.40 583.95,790.15 585.00,787.76"/>
    </edge>
    <edge id=":nt18_12" function="internal">
        <lane id=":nt18_12_0" index="0" speed="8.67" length="8.97" shape="585.00,787.76 585.60,786.40 588.35,784.15 592.20,783.40"/>
    </edge>
    <edge id=":nt18_3" function="internal">
        <lane id=":nt18_3_0" index="0" speed="6.51" length="9.03" shape="592.20,789.80 589.75,790.15 588.00,791.20 586.95,792.95 586.60,795.40"/>
    </edge>
    <edge id=":nt18_4" function="internal">
        <lane id=":nt18_4_0" index="0" speed="20.00" length="14.40" shape="592.20,789.80 577.80,789.80"/>
    </edge>
    <edge id=":nt18_5" function="internal">
        <lane id=":nt18_5_0" index="0" speed="8.67" length="16.85" shape="592.20,786.60 588.35,785.85 585.60,783.60 583.95,779.85 583.40,774.60"/>
    </edge>
    <edge id=":nt18_6" function="internal">
        <lane id=":nt18_6_0" index="0" speed="6.51" length="9.03" shape="586.60,774.60 586.95,777.05 588.00,778.80 589.75,779.85 592.20,780.20"/>
    </edge>
    <edge id=":nt18_7" function="internal">