<routes>
  <vType id="type1" length="5" accel="5" decel="10"/>
  <flow id="i:1" departPos="random_free" from="e:nt1,nt2" to="e:nt10,np7" begin="0" end="1" departLane="0" departSpeed="0" number="6" type="type1"/>
  <flow id="i:2" departPos="random_free" from="e:nt2,nt1" to="e:nt10,np7" begin="0" end="1" departLane="0" departSpeed="0" number="6" type="type1"/>
  <flow id="i:3" departPos="random_free" from="e:nt1,nt2" to="e:nt3,np3" begin="0" end="1" departLane="1" departSpeed="0" number="6" type="type1"/>
  <flow id="i:4" departPos="random_free" from="e:nt2,nt1" to="e:nt3,np3" begin="0" end="1" departLane="1" departSpeed="0" number="6" type="type1"/>
  <flow id="i:5" departPos="random_free" from="e:nt2,nt3" to="e:nt25,np10" begin="0" end="1" departLane="0" departSpeed="0" number="6" type="type1"/>
  <flow id="i:6" departPos="random_free" from="e:nt3,nt2" to="e:nt21,np15" begin="0" end="1" departLane="0" departSpeed="0" number="6" type="type1"/>
  <flow id="i:7" departPos="random_free" from="e:nt2,nt3" to="e:nt4,np4" begin="0" end="1" departLane="1" departSpeed="0" number="6" type="type1"/>
  <flow id="i:8" departPos="random_free" from="e:nt3,nt2" to="e:nt11,np18" begin="0" end="1" departLane="1" departSpeed="0" number="6" type="type1"/>
  <flow id="i:9" departPos="random_free" from="e:nt3,nt4" to="e:nt10,np7" begin="0" end="1" departLane="0" departSpeed="0" number="6" type="type1"/>
  <flow id="i:10" departPos="random_free" from="e:nt4,nt3" to="e:nt4,np4" begin="0" end="1" departLane="0" departSpeed="0" number="6" type="type1"/>
  <flow id="i:11" departPos="random_free" from="e:nt3,nt4" to="e:nt6,np19" begin="0" end="1" departLane="1" departSpeed="0" number="6" type="type1"/>
  <flow id="i:12" departPos="random_free" from="e:nt4,nt3" to="e:nt16,np17" begin="0" end="1" departLane="1" departSpeed="0" number="6" type="type1"/>
  <flow id="i:13" departPos="random_free" from="e:nt4,nt5" to="e:nt6,np19" begin="0" end="1" departLane="0" departSpeed="0" number="6" type="type1"/>
  <flow id="i:14" departPos="random_free" from="e:nt5,nt4" to="e:nt20,np9" begin="0" end="1" departLane="0" departSpeed="0" number="6" type="type1"/>
  <flow id="i:15" departPos="random_free" from="e:nt4,nt5" to="e:nt2,np2" begin="0" end="1" departLane="1" departSpeed="0" number="6" type="type1"/>
  <flow id="i:16" departPos="random_free" from="e:nt5,nt4" to="e:nt10,np7" begin="0" end="1" departLane="1" departSpeed="0" number="6" type="type1"/>
  <flow id="i:17" departPos="random_free" from="e:nt6,nt7" to="e:nt5,np5" begin="0" end="1" departLane="0" departSpeed="0" number="6" type="type1"/>
  <flow id="i:18" departPos="random_free" from="e:nt7,nt6" to="e:nt10,np7" begin="0" end="1" departLane="0" departSpeed="0" number="6" type="type1"/>
  <flow id="i:19" departPos="random_free" from="e:nt6,nt7" to="e:nt5,np6" begin="0" end="1" departLane="1" departSpeed="0" number="6" type="type1"/>
  <flow id="i:20" departPos="random_free" from="e:nt7,nt6" to="e:nt1,np20" begin="0" end="1" departLane="1" departSpeed="0" number="6" type="type1"/>
  <flow id="i:21" departPos="random_free" from="e:nt7,nt8" to="e:nt4,np4" begin="0" end="1" departLane="0" departSpeed="0" number="6" type="type1"/>
  <flow id="i:22" departPos="random_free" from="e:nt8,nt7" to="e:nt6,np19" begin="0" end="1" departLane="0" departSpeed="0" number="6" type="type1"/>
  <flow id="i:23" departPos="random_free" from="e:nt7,nt8" to="e:nt23,np13" begin="0" end="1" departLane="1" departSpeed="0" number="6" type="type1"/>
  <flow id="i:24" departPos="random_free" from="e:nt8,nt7" to="e:nt11,np18" begin="0" end="1" departLane="1" departSpeed="0" number="6" type="type1"/>
  <flow id="i:25" departPos="random_free" from="e:nt8,nt9" to="e:nt25,np11" begin="0" end="1" departLane="0" departSpeed="0" number="6" type="type1"/>
  <flow id="i:26" departPos="random_free" from="e:nt9,nt8" to="e:nt20,np9" begin="0" end="1" departLane="0" departSpeed="0" number="6" type="type1"/>
  <flow id="i:27" departPos="random_free" from="e:nt8,nt9" to="e:nt3,np3" begin="0" end="1" departLane="1" departSpeed="0" number="6" type="type1"/>
  <flow id="i:28" departPos="random_free" from="e:nt9,nt8" to="e:nt22,np14" begin="0" end="1" departLane="1" departSpeed="0" number="6" type="type1"/>
  <flow id="i:29" departPos="random_free" from="e:nt9,nt10" to="e:nt20,np9" begin="0" end="1" departLane="0" departSpeed="0" number="6" type="type1"/>
  <flow id="i:30" departPos="random_free" from="e:nt10,nt9" to="e:nt16,np17" begin="0" end="1" departLane="0" departSpeed="0" number="6" type="type1"/>
  <flow id="i:31" departPos="random_free" from="e:nt9,nt10" to="e:nt25,np11" begin="0" end="1" departLane="1" departSpeed="0" number="6" type="type1"/>
  <flow id="i:32" departPos="random_free" from="e:nt10,nt9" to="e:nt3,np3" begin="0" end="1" departLane="1" departSpeed="0" number="6" type="type1"/>
  <flow id="i:33" departPos="random_free" from="e:nt11,nt12" to="e:nt11,np18" begin="0" end="1" departLane="0" departSpeed="0" number="6" type="type1"/>
  <flow id="i:34" departPos="random_free" from="e:nt12,nt11" to="e:nt4,np4" begin="0" end="1" departLane="0" departSpeed="0" number="6" type="type1"/>
  <flow id="i:35" departPos="random_free" from="e:nt11,nt12" to="e:nt21,np16" begin="0" end="1" departLane="1" departSpeed="0" number="6" type="type1"/>
  <flow id="i:36" departPos="random_free" from="e:nt12,nt11" to="e:nt24,np12" begin="0" end="1" departLane="1" departSpeed="0" number="6" type="type1"/>
  <flow id="i:37" departPos="random_free" from="e:nt12,nt13" to="e:nt6,np19" begin="0" end="1" departLane="0" departSpeed="0" number="6" type="type1"/>
  <flow id="i:38" departPos="random_free" from="e:nt13,nt12" to="e:nt6,np19" begin="0" end="1" departLane="0" departSpeed="0" number="6" type="type1"/>
  <flow id="i:39" departPos="random_free" from="e:nt12,nt13" to="e:nt25,np11" begin="0" end="1" departLane="1" departSpeed="0" number="6" type="type1"/>
  <flow id="i:40" departPos="random_free" from="e:nt13,nt12" to="e:nt6,np19" begin="0" end="1" departLane="1" departSpeed="0" number="6" type="type1"/>
  <flow id="i:41" departPos="random_free" from="e:nt13,nt14" to="e:nt6,np19" begin="0" end="1" departLane="0" departSpeed="0" number="6" type="type1"/>
  <flow id="i:42" departPos="random_free" from="e:nt14,nt13" to="e:nt21,np15" begin="0" end="1" departLane="0" departSpeed="0" number="6" type="type1"/>
  <flow id="i:43" departPos="random_free" from="e:nt13,nt14" to="e:nt24,np12" begin="0" end="1" departLane="1" departSpeed="0" number="6" type="type1"/>
  <flow id="i:44" departPos="random_free" from="e:nt14,nt13" to="e:nt20,np9" begin="0" end="1" departLane="1" departSpeed="0" number="6" type="type1"/>
  <flow id="i:45" departPos="random_free" from="e:nt14,nt15" to="e:nt21,np15" begin="0" end="1" departLane="0" departSpeed="0" number="6" type="type1"/>
  <flow id="i:46" departPos="random_free" from="e:nt15,nt14" to="e:nt25,np10" begin="0" end="1" departLane="0" departSpeed="0" number="6" type="type1"/>
  <flow id="i:47" departPos="random_free" from="e:nt14,nt15" to="e:nt11,np18" begin="0" end="1" departLane="1" departSpeed="0" number="6" type="type1"/>
  <flow id="i:48" departPos="random_free" from="e:nt15,nt14" to="e:nt11,np18" begin="0" end="1" departLane="1" departSpeed="0" number="6" type="type1"/>
  <flow id="i:49" departPos="random_free" from="e:nt16,nt17" to="e:nt4,np4" begin="0" end="1" departLane="0" departSpeed="0" number="6" type="type1"/>
  <flow id="i:50" departPos="random_free" from="e:nt17,nt16" to="e:nt25,np10" begin="0" end="1" departLane="0" departSpeed="0" number="6" type="type1"/>
  <flow id="i:51" departPos="random_free" from="e:nt16,nt17" to="e:nt16,np17" begin="0" end="1" departLane="1" departSpeed="0" number="6" type="type1"/>
  <flow id="i:52" departPos="random_free" from="e:nt17,nt16" to="e:nt10,np7" begin="0" end="1" departLane="1" departSpeed="0" number="6" type="type1"/>
  <flow id="i:53" departPos="random_free" from="e:nt17,nt18" to="e:nt15,np8" begin="0" end="1" departLane="0" departSpeed="0" number="6" type="type1"/>
  <flow id="i:54" departPos="random_free" from="e:nt18,nt17" to="e:nt4,np4" begin="0" end="1" departLane="0" departSpeed="0" number="6" type="type1"/>
  <flow id="i:55" departPos="random_free" from="e:nt17,nt18" to="e:nt21,np16" begin="0" end="1" departLane="1" departSpeed="0" number="6" type="type1"/>
  <flow id="i:56" departPos="random_free" from="e:nt18,nt17" to="e:nt21,np16" begin="0" end="1" departLane="1" departSpeed="0" number="6" type="type1"/>
  <flow id="i:57" departPos="random_free" from="e:nt18,nt19" to="e:nt21,np15" begin="0" end="1" departLane="0" departSpeed="0" number="6" type="type1"/>
  <flow id="i:58" departPos="random_free" from="e:nt19,nt18" to="e:nt6,np19" begin="0" end="1" departLane="0" departSpeed="0" number="6" type="type1"/>
  <flow id="i:59" departPos="random_free" from="e:nt18,nt19" to="e:nt10,np7" begin="0" end="1" departLane="1" departSpeed="0" number="6" type="type1"/>
  <flow id="i:60" departPos="random_free" from="e:nt19,nt18" to="e:nt1,np1" begin="0" end="1" departLane="1" departSpeed="0" number="6" type="type1"/>
  <flow id="i:61" departPos="random_free" from="e:nt19,nt20" to="e:nt21,np15" begin="0" end="1" departLane="0" departSpeed="0" number="6" type="type1"/>
  <flow id="i:62" departPos="random_free" from="e:nt20,nt19" to="e:nt20,np9" begin="0" end="1" departLane="0" departSpeed="0" number="6" type="type1"/>
  <flow id="i:63" departPos="random_free" from="e:nt19,nt20" to="e:nt25,np10" begin="0" end="1" departLane="1" departSpeed="0" number="6" type="type1"/>
  <flow id="i:64" departPos="random_free" from="e:nt20,nt19" to="e:nt5,np6" begin="0" end="1" departLane="1" departSpeed="0" number="6" type="type1"/>
  <flow id="i:65" departPos="random_free" from="e:nt21,nt22" to="e:nt21,np15" begin="0" end="1" departLane="0" departSpeed="0" number="6" type="type1"/>
  <flow id="i:66" departPos="random_free" from="e:nt22,nt21" to="e:nt4,np4" begin="0" end="1" departLane="0" departSpeed="0" number="6" type="type1"/>
  <flow id="i:67" departPos="random_free" from="e:nt21,nt22" to="e:nt11,np18" begin="0" end="1" departLane="1" departSpeed="0" number="6" type="type1"/>
  <flow id="i:68" departPos="random_free" from="e:nt22,nt21" to="e:nt1,np20" begin="0" end="1" departLane="1" departSpeed="0" number="6" type="type1"/>
  <flow id="i:69" departPos="random_free" from="e:nt22,nt23" to="e:nt23,np13" begin="0" end="1" departLane="0" departSpeed="0" number="6" type="type1"/>
  <flow id="i:70" departPos="random_free" from="e:nt23,nt22" to="e:nt15,np8" begin="0" end="1" departLane="0" departSpeed="0" number="6" type="type1"/>
  <flow id="i:71" departPos="random_free" from="e:nt22,nt23" to="e:nt4,np4" begin="0" end="1" departLane="1" departSpeed="0" number="6" type="type1"/>
  <flow id="i:72" departPos="random_free" from="e:nt23,nt22" to="e:nt5,np6" begin="0" end="1" departLane="1" departSpeed="0" number="6" type="type1"/>
  <flow id="i:73" departPos="random_free" from="e:nt23,nt24" to="e:nt11,np18" begin="0" end="1" departLane="0" departSpeed="0" number="6" type="type1"/>
  <flow id="i:74" departPos="random_free" from="e:nt24,nt23" to="e:nt23,np13" begin="0" end="1" departLane="0" departSpeed="0" number="6" type="type1"/>
  <flow id="i:75" departPos="random_free" from="e:nt23,nt24" to="e:nt1,np1" begin="0" end="1" departLane="1" departSpeed="0" number="6" type="type1"/>
  <flow id="i:76" departPos="random_free" from="e:nt24,nt23" to="e:nt3,np3" begin="0" end="1" departLane="1" departSpeed="0" number="6" type="type1"/>
  <flow id="i:77" departPos="random_free" from="e:nt24,nt25" to="e:nt5,np6" begin="0" end="1" departLane="0" departSpeed="0" number="6" type="type1"/>
  <flow id="i:78" departPos="random_free" from="e:nt25,nt24" to="e:nt21,np16" begin="0" end="1" departLane="0" departSpeed="0" number="6" type="type1"/>
  <flow id="i:79" departPos="random_free" from="e:nt24,nt25" to="e:nt25,np10" begin="0" end="1" departLane="1" departSpeed="0" number="6" type="type1"/>
  <flow id="i:80" departPos="random_free" from="e:nt25,nt24" to="e:nt10,np7" begin="0" end="1" departLane="1" departSpeed="0" number="6" type="type1"/>
  <flow id="i:81" departPos="random_free" from="e:nt1,nt6" to="e:nt15,np8" begin="0" end="1" departLane="0" departSpeed="0" number="6" type="type1"/>
  <flow id="i:82" departPos="random_free" from="e:nt6,nt1" to="e:nt25,np11" begin="0" end="1" departLane="0" departSpeed="0" number="6" type="type1"/>
  <flow id="i:83" departPos="random_free" from="e:nt6,nt11" to="e:nt10,np7" begin="0" end="1" departLane="0" departSpeed="0" number="6" type="type1"/>
  <flow id="i:84" departPos="random_free" from="e:nt11,nt6" to="e:nt5,np5" begin="0" end="1" departLane="0" departSpeed="0" number="6" type="type1"/>
  <flow id="i:85" departPos="random_free" from="e:nt11,nt16" to="e:nt2,np2" begin="0" end="1" departLane="0" departSpeed="0" number="6" type="type1"/>
  <flow id="i:86" departPos="random_free" from="e:nt16,nt11" to="e:nt5,np6" begin="0" end="1" departLane="0" departSpeed="0" number="6" type="type1"/>
  <flow id="i:87" departPos="random_free" from="e:nt16,nt21" to="e:nt25,np11" begin="0" end="1" departLane="0" departSpeed="0" number="6" type="type1"/>
  <flow id="i:88" departPos="random_free" from="e:nt21,nt16" to="e:nt3,np3" begin="0" end="1" departLane="0" departSpeed="0" number="6" type="type1"/>
  <flow id="i:89" departPos="random_free" from="e:nt2,nt7" to="e:nt23,np13" begin="0" end="1" departLane="0" departSpeed="0" number="6" type="type1"/>
  <flow id="i:90" departPos="random_free" from="e:nt7,nt2" to="e:nt11,np18" begin="0" end="1" departLane="0" departSpeed="0" number="6" type="type1"/>
  <flow id="i:91" departPos="random_free" from="e:nt7,nt12" to="e:nt1,np20" begin="0" end="1" departLane="0" departSpeed="0" number="6" type="type1"/>
  <flow id="i:92" departPos="random_free" from="e:nt12,nt7" to="e:nt21,np15" begin="0" end="1" departLane="0" departSpeed="0" number="6" type="type1"/>
  <flow id="i:93" departPos="random_free" from="e:nt12,nt17" to="e:nt21,np15" begin="0" end="1" departLane="0" departSpeed="0" number="6" type="type1"/>
  <flow id="i:94" departPos="random_free" from="e:nt17,nt12" to="e:nt25,np10" begin="0" end="1" departLane="0" departSpeed="0" number="6" type="type1"/>
  <flow id="i:95" departPos="random_free" from="e:nt17,nt22" to="e:nt6,np19" begin="0" end="1" departLane="0" departSpeed="0" number="6" type="type1"/>
  <flow id="i:96" departPos="random_free" from="e:nt22,nt17" to="e:nt5,np5" begin="0" end="1" departLane="0" departSpeed="0" number="6" type="type1"/>
  <flow id="i:97" departPos="random_free" from="e:nt3,nt8" to="e:nt25,np11" begin="0" end="1" departLane="0" departSpeed="0" number="6" type="type1"/>
  <flow id="i:98" departPos="random_free" from="e:nt8,nt3" to="e:nt1,np1" begin="0" end="1" departLane="0" departSpeed="0" number="6" type="type1"/>
  <flow id="i:99" departPos="random_free" from="e:nt8,nt13" to="e:nt21,np15" begin="0" end="1" departLane="0" departSpeed="0" number="6" type="type1"/>
  <flow id="i:100" departPos="random_free" from="e:nt13,nt8" to="e:nt1,np20" begin="0" end="1" departLane="0" departSpeed="0" number="6" type="type1"/>
  <flow id="i:101" departPos="random_free" from="e:nt13,nt18" to="e:nt3,np3" begin="0" end="1" departLane="0" departSpeed="0" number="6" type="type1"/>
  <flow id="i:102" departPos="random_free" from="e:nt18,nt13" to="e:nt5,np6" begin="0" end="1" departLane="0" departSpeed="0" number="6" type="type1"/>
  <flow id="i:103" departPos="random_free" from="e:nt18,nt23" to="e:nt3,np3" begin="0" end="1" departLane="0" departSpeed="0" number="6" type="type1"/>
  <flow id="i:104" departPos="random_free" from="e:nt23,nt18" to="e:nt1,np1" begin="0" end="1" departLane="0" departSpeed="0" number="6" type="type1"/>
  <flow id="i:105" departPos="random_free" from="e:nt4,nt9" to="e:nt16,np17" begin="0" end="1" departLane="0" departSpeed="0" number="6" type="type1"/>
  <flow id="i:106" departPos="random_free" from="e:nt9,nt4" to="e:nt25,np11" begin="0" end="1" departLane="0" departSpeed="0" number="6" type="type1"/>
  <flow id="i:107" departPos="random_free" from="e:nt9,nt14" to="e:nt20,np9" begin="0" end="1" departLane="0" departSpeed="0" number="6" type="type1"/>
  <flow id="i:108" departPos="random_free" from="e:nt14,nt9" to="e:nt4,np4" begin="0" end="1" departLane="0" departSpeed="0" number="6" type="type1"/>
  <flow id="i:109" departPos="random_free" from="e:nt14,nt19" to="e:nt3,np3" begin="0" end="1" departLane="0" departSpeed="0" number="6" type="type1"/>
  <flow id="i:110" departPos="random_free" from="e:nt19,nt14" to="e:nt22,np14" begin="0" end="1" departLane="0" departSpeed="0" number="6" type="type1"/>
  <flow id="i:111" departPos="random_free" from="e:nt19,nt24" to="e:nt2,np2" begin="0" end="1" departLane="0" departSpeed="0" number="6" type="type1"/>
  <flow id="i:112" departPos="random_free" from="e:nt24,nt19" to="e:nt3,np3" begin="0" end="1" departLane="0" departSpeed="0" number="6" type="type1"/>
  <flow id="i:113" departPos="random_free" from="e:nt5,nt10" to="e:nt3,np3" begin="0" end="1" departLane="0" departSpeed="0" number="6" type="type1"/>
  <flow id="i:114" departPos="random_free" from="e:nt10,nt5" to="e:nt24,np12" begin="0" end="1" departLane="0" departSpeed="0" number="6" type="type1"/>
  <flow id="i:115" departPos="random_free" from="e:nt10,nt15" to="e:nt23,np13" begin="0" end="1" departLane="0" departSpeed="0" number="6" type="type1"/>
  <flow id="i:116" departPos="random_free" from="e:nt15,nt10" to="e:nt1,np1" begin="0" end="1" departLane="0" departSpeed="0" number="6" type="type1"/>
  <flow id="i:117" departPos="random_free" from="e:nt15,nt20" to="e:nt16,np17" begin="0" end="1" departLane="0" departSpeed="0" number="6" type="type1"/>
  <flow id="i:118" departPos="random_free" from="e:nt20,nt15" to="e:nt10,np7" begin="0" end="1" departLane="0" departSpeed="0" number="6" type="type1"/>
  <flow id="i:119" departPos="random_free" from="e:nt20,nt25" to="e:nt15,np8" begin="0" end="1" departLane="0" departSpeed="0" number="6" type="type1"/>
  <flow id="i:120" departPos="random_free" from="e:nt25,nt20" to="e:nt11,np18" begin="0" end="1" departLane="0" departSpeed="0" number="6" type="type1"/>
  <flow id="f:0_0" departPos="random_free" from="e:np12,nt24" to="e:nt2,np2" begin="0" end="300" vehsPerHour="240" type="type1"/>
  <flow id="f:0_1" departPos="random_free" from="e:np13,nt23" to="e:nt3,np3" begin="0" end="300" vehsPerHour="240" type="type1"/>
  <flow id="f:0_2" departPos="random_free" from="e:np14,nt22" to="e:nt4,np4" begin="0" end="300" vehsPerHour="240" type="type1"/>
  <flow id="f:0_3" departPos="random_free" from="e:np16,nt21" to="e:nt5,np6" begin="0" end="300" vehsPerHour="400" type="type1"/>
  <flow id="f:0_4" departPos="random_free" from="e:np18,nt11" to="e:nt15,np8" begin="0" end="300" vehsPerHour="400" type="type1"/>
  <flow id="f:0_5" departPos="random_free" from="e:np20,nt1" to="e:nt25,np10" begin="0" end="300" vehsPerHour="400" type="type1"/>
  <flow id="f:1_0" departPos="random_free" from="e:np12,nt24" to="e:nt2,np2" begin="300" end="600" vehsPerHour="420" type="type1"/>
  <flow id="f:1_1" departPos="random_free" from="e:np13,nt23" to="e:nt3,np3" begin="300" end="600" vehsPerHour="420" type="type1"/>
  <flow id="f:1_2" departPos="random_free" from="e:np14,nt22" to="e:nt4,np4" begin="300" end="600" vehsPerHour="420" type="type1"/>
  <flow id="f:1_3" departPos="random_free" from="e:np16,nt21" to="e:nt5,np6" begin="300" end="600" vehsPerHour="700" type="type1"/>
  <flow id="f:1_4" departPos="random_free" from="e:np18,nt11" to="e:nt15,np8" begin="300" end="600" vehsPerHour="700" type="type1"/>
  <flow id="f:1_5" departPos="random_free" from="e:np20,nt1" to="e:nt25,np10" begin="300" end="600" vehsPerHour="700" type="type1"/>
  <flow id="f:2_0" departPos="random_free" from="e:np12,nt24" to="e:nt2,np2" begin="600" end="900" vehsPerHour="540" type="type1"/>
  <flow id="f:2_1" departPos="random_free" from="e:np13,nt23" to="e:nt3,np3" begin="600" end="900" vehsPerHour="540" type="type1"/>
  <flow id="f:2_2" departPos="random_free" from="e:np14,nt22" to="e:nt4,np4" begin="600" end="900" vehsPerHour="540" type="type1"/>
  <flow id="f:2_3" departPos="random_free" from="e:np16,nt21" to="e:nt5,np6" begin="600" end="900" vehsPerHour="900" type="type1"/>
  <flow id="f:2_4" departPos="random_free" from="e:np18,nt11" to="e:nt15,np8" begin="600" end="900" vehsPerHour="900" type="type1"/>
  <flow id="f:2_5" departPos="random_free" from="e:np20,nt1" to="e:nt25,np10" begin="600" end="900" vehsPerHour="900" type="type1"/>
  <flow id="f:3_0" departPos="random_free" from="e:np12,nt24" to="e:nt2,np2" begin="900" end="1200" vehsPerHour="600" type="type1"/>
  <flow id="f:3_1" departPos="random_free" from="e:np13,nt23" to="e:nt3,np3" begin="900" end="1200" vehsPerHour="600" type="type1"/>
  <flow id="f:3_2" departPos="random_free" from="e:np14,nt22" to="e:nt4,np4" begin="900" end="1200" vehsPerHour="600" type="type1"/>
  <flow id="f:3_3" departPos="random_free" from="e:np16,nt21" to="e:nt5,np6" begin="900" end="1200" vehsPerHour="1000" type="type1"/>
  <flow id="f:3_4" departPos="random_free" from="e:np18,nt11" to="e:nt15,np8" begin="900" end="1200" vehsPerHour="1000" type="type1"/>
  <flow id="f:3_5" departPos="random_free" from="e:np20,nt1" to="e:nt25,np10" begin="900" end="1200" vehsPerHour="1000" type="type1"/>
  <flow id="f:3_6" departPos="random_free" from="e:np2,nt2" to="e:nt22,np14" begin="900" end="1200" vehsPerHour="360" type="type1"/>
  <flow id="f:3_7" departPos="random_free" from="e:np3,nt3" to="e:nt23,np13" begin="900" end="1200" vehsPerHour="360" type="type1"/>
  <flow id="f:3_8" departPos="random_free" from="e:np4,nt4" to="e:nt24,np12" begin="900" end="1200" vehsPerHour="360" type="type1"/>
  <flow id="f:3_9" departPos="random_free" from="e:np6,nt5" to="e:nt1,np20" begin="900" end="1200" vehsPerHour="600" type="type1"/>
  <flow id="f:3_10" departPos="random_free" from="e:np8,nt15" to="e:nt11,np18" begin="900" end="1200" vehsPerHour="600" type="type1"/>
  <flow id="f:3_11" departPos="random_free" from="e:np10,nt25" to="e:nt21,np16" begin="900" end="1200" vehsPerHour="600" type="type1"/>
  <flow id="f:4_0" departPos="random_free" from="e:np12,nt24" to="e:nt2,np2" begin="1200" end="1500" vehsPerHour="450" type="type1"/>
  <flow id="f:4_1" departPos="random_free" from="e:np13,nt23" to="e:nt3,np3" begin="1200" end="1500" vehsPerHour="450" type="type1"/>
  <flow id="f:4_2" departPos="random_free" from="e:np14,nt22" to="e:nt4,np4" begin="1200" end="1500" vehsPerHour="450" type="type1"/>
  <flow id="f:4_3" departPos="random_free" from="e:np16,nt21" to="e:nt5,np6" begin="1200" end="1500" vehsPerHour="750" type="type1"/>
  <flow id="f:4_4" departPos="random_free" from="e:np18,nt11" to="e:nt15,np8" begin="1200" end="1500" vehsPerHour="750" type="type1"/>
  <flow id="f:4_5" departPos="random_free" from="e:np20,nt1" to="e:nt25,np10" begin="1200" end="1500" vehsPerHour="750" type="type1"/>
  <flow id="f:4_6" departPos="random_free" from="e:np2,nt2" to="e:nt22,np14" begin="1200" end="1500" vehsPerHour="960" type="type1"/>
  <flow id="f:4_7" departPos="random_free" from="e:np3,nt3" to="e:nt23,np13" begin="1200" end="1500" vehsPerHour="960" type="type1"/>
  <flow id="f:4_8" departPos="random_free" from="e:np4,nt4" to="e:nt24,np12" begin="1200" end="1500" vehsPerHour="960" type="type1"/>
  <flow id="f:4_9" departPos="random_free" from="e:np6,nt5" to="e:nt1,np20" begin="1200" end="1500" vehsPerHour="1600" type="type1"/>
  <flow id="f:4_10" departPos="random_free" from="e:np8,nt15" to="e:nt11,np18" begin="1200" end="1500" vehsPerHour="1600" type="type1"/>
  <flow id="f:4_11" departPos="random_free" from="e:np10,nt25" to="e:nt21,np16" begin="1200" end="1500" vehsPerHour="1600" type="type1"/>
  <flow id="f:5_0" departPos="random_free" from="e:np12,nt24" to="e:nt2,np2" begin="1500" end="1800" vehsPerHour="300" type="type1"/>
  <flow id="f:5_1" departPos="random_free" from="e:np13,nt23" to="e:nt3,np3" begin="1500" end="1800" vehsPerHour="300" type="type1"/>
  <flow id="f:5_2" departPos="random_free" from="e:np14,nt22" to="e:nt4,np4" begin="1500" end="1800" vehsPerHour="300" type="type1"/>
  <flow id="f:5_3" departPos="random_free" from="e:np16,nt21" to="e:nt5,np6" begin="1500" end="1800" vehsPerHour="500" type="type1"/>
  <flow id="f:5_4" departPos="random_free" from="e:np18,nt11" to="e:nt15,np8" begin="1500" end="1800" vehsPerHour="500" type="type1"/>
  <flow id="f:5_5" departPos="random_free" from="e:np20,nt1" to="e:nt25,np10" begin="1500" end="1800" vehsPerHour="500" type="type1"/>
  <flow id="f:5_6" departPos="random_free" from="e:np2,nt2" to="e:nt22,np14" begin="1500" end="1800" vehsPerHour="1080" type="type1"/>
  <flow id="f:5_7" departPos="random_free" from="e:np3,nt3" to="e:nt23,np13" begin="1500" end="1800" vehsPerHour="1080" type="type1"/>
  <flow id="f:5_8" departPos="random_free" from="e:np4,nt4" to="e:nt24,np12" begin="1500" end="1800" vehsPerHour="1080" type="type1"/>
  <flow id="f:5_9" departPos="random_free" from="e:np6,nt5" to="e:nt1,np20" begin="1500" end="1800" vehsPerHour="1800" type="type1"/>
  <flow id="f:5_10" departPos="random_free" from="e:np8,nt15" to="e:nt11,np18" begin="1500" end="1800" vehsPerHour="1800" type="type1"/>
  <flow id="f:5_11" departPos="random_free" from="e:np10,nt25" to="e:nt21,np16" begin="1500" end="1800" vehsPerHour="1800" type="type1"/>
  <flow id="f:6_0" departPos="random_free" from="e:np12,nt24" to="e:nt2,np2" begin="1800" end="2100" vehsPerHour="150" type="type1"/>
  <flow id="f:6_1" departPos="random_free" from="e:np13,nt23" to="e:nt3,np3" begin="1800" end="2100" vehsPerHour="150" type="type1"/>
  <flow id="f:6_2" departPos="random_free" from="e:np14,nt22" to="e:nt4,np4" begin="1800" end="2100" vehsPerHour="150" type="type1"/>
  <flow id="f:6_3" departPos="random_free" from="e:np16,nt21" to="e:nt5,np6" begin="1800" end="2100" vehsPerHour="250" type="type1"/>
  <flow id="f:6_4" departPos="random_free" from="e:np18,nt11" to="e:nt15,np8" begin="1800" end="2100" vehsPerHour="250" type="type1"/>
  <flow id="f:6_5" departPos="random_free" from="e:np20,nt1" to="e:nt25,np10" begin="1800" end="2100" vehsPerHour="250" type="type1"/>
  <flow id="f:6_6" departPos="random_free" from="e:np2,nt2" to="e:nt22,np14" begin="1800" end="2100" vehsPerHour="1200" type="type1"/>
  <flow id="f:6_7" departPos="random_free" from="e:np3,nt3" to="e:nt23,np13" begin="1800" end="2100" vehsPerHour="1200" type="type1"/>
  <flow id="f:6_8" departPos="random_free" from="e:np4,nt4" to="e:nt24,np12" begin="1800" end="2100" vehsPerHour="1200" type="type1"/>
  <flow id="f:6_9" departPos="random_free" from="e:np6,nt5" to="e:nt1,np20" begin="1800" end="2100" vehsPerHour="2000" type="type1"/>
  <flow id="f:6_10" departPos="random_free" from="e:np8,nt15" to="e:nt11,np18" begin="1800" end="2100" vehsPerHour="2000" type="type1"/>
  <flow id="f:6_11" departPos="random_free" from="e:np10,nt25" to="e:nt21,np16" begin="1800" end="2100" vehsPerHour="2000" type="type1"/>
  <flow id="f:7_0" departPos="random_free" from="e:np2,nt2" to="e:nt22,np14" begin="2100" end="2400" vehsPerHour="960" type="type1"/>
  <flow id="f:7_1" departPos="random_free" from="e:np3,nt3" to="e:nt23,np13" begin="2100" end="2400" vehsPerHour="960" type="type1"/>
  <flow id="f:7_2" departPos="random_free" from="e:np4,nt4" to="e:nt24,np12" begin="2100" end="2400" vehsPerHour="960" type="type1"/>
  <flow id="f:7_3" departPos="random_free" from="e:np6,nt5" to="e:nt1,np20" begin="2100" end="2400" vehsPerHour="1600" type="type1"/>
  <flow id="f:7_4" departPos="random_free" from="e:np8,nt15" to="e:nt11,np18" begin="2100" end="2400" vehsPerHour="1600" type="type1"/>
  <flow id="f:7_5" departPos="random_free" from="e:np10,nt25" to="e:nt21,np16" begin="2100" end="2400" vehsPerHour="1600" type="type1"/>
  <flow id="f:8_0" departPos="random_free" from="e:np2,nt2" to="e:nt22,np14" begin="2400" end="2700" vehsPerHour="720" type="type1"/>
  <flow id="f:8_1" departPos="random_free" from="e:np3,nt3" to="e:nt23,np13" begin="2400" end="2700" vehsPerHour="720" type="type1"/>
  <flow id="f:8_2" departPos="random_free" from="e:np4,nt4" to="e:nt24,np12" begin="2400" end="2700" vehsPerHour="720" type="type1"/>
  <flow id="f:8_3" departPos="random_free" from="e:np6,nt5" to="e:nt1,np20" begin="2400" end="2700" vehsPerHour="1200" type="type1"/>
  <flow id="f:8_4" departPos="random_free" from="e:np8,nt15" to="e:nt11,np18" begin="2400" end="2700" vehsPerHour="1200" type="type1"/>
  <flow id="f:8_5" departPos="random_free" from="e:np10,nt25" to="e:nt21,np16" begin="2400" end="2700" vehsPerHour="1200" type="type1"/>
  <flow id="f:9_0" departPos="random_free" from="e:np2,nt2" to="e:nt22,np14" begin="2700" end="3000" vehsPerHour="240" type="type1"/>
  <flow id="f:9_1" departPos="random_free" from="e:np3,nt3" to="e:nt23,np13" begin="2700" end="3000" vehsPerHour="240" type="type1"/>
  <flow id="f:9_2" departPos="random_free" from="e:np4,nt4" to="e:nt24,np12" begin="2700" end="3000" vehsPerHour="240" type="type1"/>
  <flow id="f:9_3" departPos="random_free" from="e:np6,nt5" to="e:nt1,np20" begin="2700" end="3000" vehsPerHour="400" type="type1"/>
  <flow id="f:9_4" departPos="random_free" from="e:np8,nt15" to="e:nt11,np18" begin="2700" end="3000" vehsPerHour="400" type="type1"/>
  <flow id="f:9_5" departPos="random_free" from="e:np10,nt25" to="e:nt21,np16" begin="2700" end="3000" vehsPerHour="400" type="type1"/>
</routes>
