<connections>
  <connection from="e:np5,nt5" to="e:nt5,nt10" fromLane="0" toLane="0"/>
  <connection from="e:nt10,nt5" to="e:nt5,np5" fromLane="0" toLane="0"/>
  <connection from="e:nt4,nt5" to="e:nt5,np6" fromLane="0" toLane="0"/>
  <connection from="e:np6,nt5" to="e:nt5,nt4" fromLane="0" toLane="0"/>
  <connection from="e:np5,nt5" to="e:nt5,nt4" fromLane="0" toLane="1"/>
  <connection from="e:nt10,nt5" to="e:nt5,np6" fromLane="0" toLane="1"/>
  <connection from="e:nt4,nt5" to="e:nt5,nt10" fromLane="1" toLane="0"/>
  <connection from="e:np6,nt5" to="e:nt5,np5" fromLane="1" toLane="0"/>
  <connection from="e:np5,nt5" to="e:nt5,np6" fromLane="0" toLane="0"/>
  <connection from="e:nt10,nt5" to="e:nt5,nt4" fromLane="0" toLane="0"/>
  <connection from="e:nt4,nt5" to="e:nt5,np5" fromLane="0" toLane="0"/>
  <connection from="e:np6,nt5" to="e:nt5,nt10" fromLane="0" toLane="0"/>
  <connection from="e:nt5,nt10" to="e:nt10,nt15" fromLane="0" toLane="0"/>
  <connection from="e:nt15,nt10" to="e:nt10,nt5" fromLane="0" toLane="0"/>
  <connection from="e:nt9,nt10" to="e:nt10,np7" fromLane="0" toLane="0"/>
  <connection from="e:np7,nt10" to="e:nt10,nt9" fromLane="0" toLane="0"/>
  <connection from="e:nt5,nt10" to="e:nt10,nt9" fromLane="0" toLane="1"/>
  <connection from="e:nt15,nt10" to="e:nt10,np7" fromLane="0" toLane="1"/>
  <connection from="e:nt9,nt10" to="e:nt10,nt15" fromLane="1" toLane="0"/>
  <connection from="e:np7,nt10" to="e:nt10,nt5" fromLane="1" toLane="0"/>
  <connection from="e:nt5,nt10" to="e:nt10,np7" fromLane="0" toLane="0"/>
  <connection from="e:nt15,nt10" to="e:nt10,nt9" fromLane="0" toLane="0"/>
  <connection from="e:nt9,nt10" to="e:nt10,nt5" fromLane="0" toLane="0"/>
  <connection from="e:np7,nt10" to="e:nt10,nt15" fromLane="0" toLane="0"/>
  <connection from="e:nt10,nt15" to="e:nt15,nt20" fromLane="0" toLane="0"/>
  <connection from="e:nt20,nt15" to="e:nt15,nt10" fromLane="0" toLane="0"/>
  <connection from="e:nt14,nt15" to="e:nt15,np8" fromLane="0" toLane="0"/>
  <connection from="e:np8,nt15" to="e:nt15,nt14" fromLane="0" toLane="0"/>
  <connection from="e:nt10,nt15" to="e:nt15,nt14" fromLane="0" toLane="1"/>
  <connection from="e:nt20,nt15" to="e:nt15,np8" fromLane="0" toLane="1"/>
  <connection from="e:nt14,nt15" to="e:nt15,nt20" fromLane="1" toLane="0"/>
  <connection from="e:np8,nt15" to="e:nt15,nt10" fromLane="1" toLane="0"/>
  <connection from="e:nt10,nt15" to="e:nt15,np8" fromLane="0" toLane="0"/>
  <connection from="e:nt20,nt15" to="e:nt15,nt14" fromLane="0" toLane="0"/>
  <connection from="e:nt14,nt15" to="e:nt15,nt10" fromLane="0" toLane="0"/>
  <connection from="e:np8,nt15" to="e:nt15,nt20" fromLane="0" toLane="0"/>
  <connection from="e:nt15,nt20" to="e:nt20,nt25" fromLane="0" toLane="0"/>
  <connection from="e:nt25,nt20" to="e:nt20,nt15" fromLane="0" toLane="0"/>
  <connection from="e:nt19,nt20" to="e:nt20,np9" fromLane="0" toLane="0"/>
  <connection from="e:np9,nt20" to="e:nt20,nt19" fromLane="0" toLane="0"/>
  <connection from="e:nt15,nt20" to="e:nt20,nt19" fromLane="0" toLane="1"/>
  <connection from="e:nt25,nt20" to="e:nt20,np9" fromLane="0" toLane="1"/>
  <connection from="e:nt19,nt20" to="e:nt20,nt25" fromLane="1" toLane="0"/>
  <connection from="e:np9,nt20" to="e:nt20,nt15" fromLane="1" toLane="0"/>
  <connection from="e:nt15,nt20" to="e:nt20,np9" fromLane="0" toLane="0"/>
  <connection from="e:nt25,nt20" to="e:nt20,nt19" fromLane="0" toLane="0"/>
  <connection from="e:nt19,nt20" to="e:nt20,nt15" fromLane="0" toLane="0"/>
  <connection from="e:np9,nt20" to="e:nt20,nt25" fromLane="0" toLane="0"/>
  <connection from="e:nt20,nt25" to="e:nt25,np11" fromLane="0" toLane="0"/>
  <connection from="e:np11,nt25" to="e:nt25,nt20" fromLane="0" toLane="0"/>
  <connection from="e:nt24,nt25" to="e:nt25,np10" fromLane="0" toLane="0"/>
  <connection from="e:np10,nt25" to="e:nt25,nt24" fromLane="0" toLane="0"/>
  <connection from="e:nt20,nt25" to="e:nt25,nt24" fromLane="0" toLane="1"/>
  <connection from="e:np11,nt25" to="e:nt25,np10" fromLane="0" toLane="1"/>
  <connection from="e:nt24,nt25" to="e:nt25,np11" fromLane="1" toLane="0"/>
  <connection from="e:np10,nt25" to="e:nt25,nt20" fromLane="1" toLane="0"/>
  <connection from="e:nt20,nt25" to="e:nt25,np10" fromLane="0" toLane="0"/>
  <connection from="e:np11,nt25" to="e:nt25,nt24" fromLane="0" toLane="0"/>
  <connection from="e:nt24,nt25" to="e:nt25,nt20" fromLane="0" toLane="0"/>
  <connection from="e:np10,nt25" to="e:nt25,np11" fromLane="0" toLane="0"/>
  <connection from="e:nt16,nt21" to="e:nt21,np15" fromLane="0" toLane="0"/>
  <connection from="e:np15,nt21" to="e:nt21,nt16" fromLane="0" toLane="0"/>
  <connection from="e:np16,nt21" to="e:nt21,nt22" fromLane="0" toLane="0"/>
  <connection from="e:nt22,nt21" to="e:nt21,np16" fromLane="0" toLane="0"/>
  <connection from="e:nt16,nt21" to="e:nt21,np16" fromLane="0" toLane="1"/>
  <connection from="e:np15,nt21" to="e:nt21,nt22" fromLane="0" toLane="1"/>
  <connection from="e:np16,nt21" to="e:nt21,np15" fromLane="1" toLane="0"/>
  <connection from="e:nt22,nt21" to="e:nt21,nt16" fromLane="1" toLane="0"/>
  <connection from="e:nt16,nt21" to="e:nt21,nt22" fromLane="0" toLane="0"/>
  <connection from="e:np15,nt21" to="e:nt21,np16" fromLane="0" toLane="0"/>
  <connection from="e:np16,nt21" to="e:nt21,nt16" fromLane="0" toLane="0"/>
  <connection from="e:nt22,nt21" to="e:nt21,np15" fromLane="0" toLane="0"/>
  <connection from="e:nt11,nt16" to="e:nt16,nt21" fromLane="0" toLane="0"/>
  <connection from="e:nt21,nt16" to="e:nt16,nt11" fromLane="0" toLane="0"/>
  <connection from="e:np17,nt16" to="e:nt16,nt17" fromLane="0" toLane="0"/>
  <connection from="e:nt17,nt16" to="e:nt16,np17" fromLane="0" toLane="0"/>
  <connection from="e:nt11,nt16" to="e:nt16,np17" fromLane="0" toLane="1"/>
  <connection from="e:nt21,nt16" to="e:nt16,nt17" fromLane="0" toLane="1"/>
  <connection from="e:np17,nt16" to="e:nt16,nt21" fromLane="1" toLane="0"/>
  <connection from="e:nt17,nt16" to="e:nt16,nt11" fromLane="1" toLane="0"/>
  <connection from="e:nt11,nt16" to="e:nt16,nt17" fromLane="0" toLane="0"/>
  <connection from="e:nt21,nt16" to="e:nt16,np17" fromLane="0" toLane="0"/>
  <connection from="e:np17,nt16" to="e:nt16,nt11" fromLane="0" toLane="0"/>
  <connection from="e:nt17,nt16" to="e:nt16,nt21" fromLane="0" toLane="0"/>
  <connection from="e:nt6,nt11" to="e:nt11,nt16" fromLane="0" toLane="0"/>
  <connection from="e:nt16,nt11" to="e:nt11,nt6" fromLane="0" toLane="0"/>
  <connection from="e:np18,nt11" to="e:nt11,nt12" fromLane="0" toLane="0"/>
  <connection from="e:nt12,nt11" to="e:nt11,np18" fromLane="0" toLane="0"/>
  <connection from="e:nt6,nt11" to="e:nt11,np18" fromLane="0" toLane="1"/>
  <connection from="e:nt16,nt11" to="e:nt11,nt12" fromLane="0" toLane="1"/>
  <connection from="e:np18,nt11" to="e:nt11,nt16" fromLane="1" toLane="0"/>
  <connection from="e:nt12,nt11" to="e:nt11,nt6" fromLane="1" toLane="0"/>
  <connection from="e:nt6,nt11" to="e:nt11,nt12" fromLane="0" toLane="0"/>
  <connection from="e:nt16,nt11" to="e:nt11,np18" fromLane="0" toLane="0"/>
  <connection from="e:np18,nt11" to="e:nt11,nt6" fromLane="0" toLane="0"/>
  <connection from="e:nt12,nt11" to="e:nt11,nt16" fromLane="0" toLane="0"/>
  <connection from="e:nt1,nt6" to="e:nt6,nt11" fromLane="0" toLane="0"/>
  <connection from="e:nt11,nt6" to="e:nt6,nt1" fromLane="0" toLane="0"/>
  <connection from="e:np19,nt6" to="e:nt6,nt7" fromLane="0" toLane="0"/>
  <connection from="e:nt7,nt6" to="e:nt6,np19" fromLane="0" toLane="0"/>
  <connection from="e:nt1,nt6" to="e:nt6,np19" fromLane="0" toLane="1"/>
  <connection from="e:nt11,nt6" to="e:nt6,nt7" fromLane="0" toLane="1"/>
  <connection from="e:np19,nt6" to="e:nt6,nt11" fromLane="1" toLane="0"/>
  <connection from="e:nt7,nt6" to="e:nt6,nt1" fromLane="1" toLane="0"/>
  <connection from="e:nt1,nt6" to="e:nt6,nt7" fromLane="0" toLane="0"/>
  <connection from="e:nt11,nt6" to="e:nt6,np19" fromLane="0" toLane="0"/>
  <connection from="e:np19,nt6" to="e:nt6,nt1" fromLane="0" toLane="0"/>
  <connection from="e:nt7,nt6" to="e:nt6,nt11" fromLane="0" toLane="0"/>
  <connection from="e:np1,nt1" to="e:nt1,nt6" fromLane="0" toLane="0"/>
  <connection from="e:nt6,nt1" to="e:nt1,np1" fromLane="0" toLane="0"/>
  <connection from="e:np20,nt1" to="e:nt1,nt2" fromLane="0" toLane="0"/>
  <connection from="e:nt2,nt1" to="e:nt1,np20" fromLane="0" toLane="0"/>
  <connection from="e:np1,nt1" to="e:nt1,np20" fromLane="0" toLane="1"/>
  <connection from="e:nt6,nt1" to="e:nt1,nt2" fromLane="0" toLane="1"/>
  <connection from="e:np20,nt1" to="e:nt1,nt6" fromLane="1" toLane="0"/>
  <connection from="e:nt2,nt1" to="e:nt1,np1" fromLane="1" toLane="0"/>
  <connection from="e:np1,nt1" to="e:nt1,nt2" fromLane="0" toLane="0"/>
  <connection from="e:nt6,nt1" to="e:nt1,np20" fromLane="0" toLane="0"/>
  <connection from="e:np20,nt1" to="e:nt1,np1" fromLane="0" toLane="0"/>
  <connection from="e:nt2,nt1" to="e:nt1,nt6" fromLane="0" toLane="0"/>
  <connection from="e:np2,nt2" to="e:nt2,nt7" fromLane="0" toLane="0"/>
  <connection from="e:nt7,nt2" to="e:nt2,np2" fromLane="0" toLane="0"/>
  <connection from="e:nt1,nt2" to="e:nt2,nt3" fromLane="0" toLane="0"/>
  <connection from="e:nt3,nt2" to="e:nt2,nt1" fromLane="0" toLane="0"/>
  <connection from="e:np2,nt2" to="e:nt2,nt1" fromLane="0" toLane="1"/>
  <connection from="e:nt7,nt2" to="e:nt2,nt3" fromLane="0" toLane="1"/>
  <connection from="e:nt1,nt2" to="e:nt2,nt7" fromLane="1" toLane="0"/>
  <connection from="e:nt3,nt2" to="e:nt2,np2" fromLane="1" toLane="0"/>
  <connection from="e:np2,nt2" to="e:nt2,nt3" fromLane="0" toLane="0"/>
  <connection from="e:nt7,nt2" to="e:nt2,nt1" fromLane="0" toLane="0"/>
  <connection from="e:nt1,nt2" to="e:nt2,np2" fromLane="0" toLane="0"/>
  <connection from="e:nt3,nt2" to="e:nt2,nt7" fromLane="0" toLane="0"/>
  <connection from="e:np3,nt3" to="e:nt3,nt8" fromLane="0" toLane="0"/>
  <connection from="e:nt8,nt3" to="e:nt3,np3" fromLane="0" toLane="0"/>
  <connection from="e:nt2,nt3" to="e:nt3,nt4" fromLane="0" toLane="0"/>
  <connection from="e:nt4,nt3" to="e:nt3,nt2" fromLane="0" toLane="0"/>
  <connection from="e:np3,nt3" to="e:nt3,nt2" fromLane="0" toLane="1"/>
  <connection from="e:nt8,nt3" to="e:nt3,nt4" fromLane="0" toLane="1"/>
  <connection from="e:nt2,nt3" to="e:nt3,nt8" fromLane="1" toLane="0"/>
  <connection from="e:nt4,nt3" to="e:nt3,np3" fromLane="1" toLane="0"/>
  <connection from="e:np3,nt3" to="e:nt3,nt4" fromLane="0" toLane="0"/>
  <connection from="e:nt8,nt3" to="e:nt3,nt2" fromLane="0" toLane="0"/>
  <connection from="e:nt2,nt3" to="e:nt3,np3" fromLane="0" toLane="0"/>
  <connection from="e:nt4,nt3" to="e:nt3,nt8" fromLane="0" toLane="0"/>
  <connection from="e:np4,nt4" to="e:nt4,nt9" fromLane="0" toLane="0"/>
  <connection from="e:nt9,nt4" to="e:nt4,np4" fromLane="0" toLane="0"/>
  <connection from="e:nt3,nt4" to="e:nt4,nt5" fromLane="0" toLane="0"/>
  <connection from="e:nt5,nt4" to="e:nt4,nt3" fromLane="0" toLane="0"/>
  <connection from="e:np4,nt4" to="e:nt4,nt3" fromLane="0" toLane="1"/>
  <connection from="e:nt9,nt4" to="e:nt4,nt5" fromLane="0" toLane="1"/>
  <connection from="e:nt3,nt4" to="e:nt4,nt9" fromLane="1" toLane="0"/>
  <connection from="e:nt5,nt4" to="e:nt4,np4" fromLane="1" toLane="0"/>
  <connection from="e:np4,nt4" to="e:nt4,nt5" fromLane="0" toLane="0"/>
  <connection from="e:nt9,nt4" to="e:nt4,nt3" fromLane="0" toLane="0"/>
  <connection from="e:nt3,nt4" to="e:nt4,np4" fromLane="0" toLane="0"/>
  <connection from="e:nt5,nt4" to="e:nt4,nt9" fromLane="0" toLane="0"/>
  <connection from="e:nt19,nt24" to="e:nt24,np12" fromLane="0" toLane="0"/>
  <connection from="e:np12,nt24" to="e:nt24,nt19" fromLane="0" toLane="0"/>
  <connection from="e:nt23,nt24" to="e:nt24,nt25" fromLane="0" toLane="0"/>
  <connection from="e:nt25,nt24" to="e:nt24,nt23" fromLane="0" toLane="0"/>
  <connection from="e:nt19,nt24" to="e:nt24,nt23" fromLane="0" toLane="1"/>
  <connection from="e:np12,nt24" to="e:nt24,nt25" fromLane="0" toLane="1"/>
  <connection from="e:nt23,nt24" to="e:nt24,np12" fromLane="1" toLane="0"/>
  <connection from="e:nt25,nt24" to="e:nt24,nt19" fromLane="1" toLane="0"/>
  <connection from="e:nt19,nt24" to="e:nt24,nt25" fromLane="0" toLane="0"/>
  <connection from="e:np12,nt24" to="e:nt24,nt23" fromLane="0" toLane="0"/>
  <connection from="e:nt23,nt24" to="e:nt24,nt19" fromLane="0" toLane="0"/>
  <connection from="e:nt25,nt24" to="e:nt24,np12" fromLane="0" toLane="0"/>
  <connection from="e:nt18,nt23" to="e:nt23,np13" fromLane="0" toLane="0"/>
  <connection from="e:np13,nt23" to="e:nt23,nt18" fromLane="0" toLane="0"/>
  <connection from="e:nt22,nt23" to="e:nt23,nt24" fromLane="0" toLane="0"/>
  <connection from="e:nt24,nt23" to="e:nt23,nt22" fromLane="0" toLane="0"/>
  <connection from="e:nt18,nt23" to="e:nt23,nt22" fromLane="0" toLane="1"/>
  <connection from="e:np13,nt23" to="e:nt23,nt24" fromLane="0" toLane="1"/>
  <connection from="e:nt22,nt23" to="e:nt23,np13" fromLane="1" toLane="0"/>
  <connection from="e:nt24,nt23" to="e:nt23,nt18" fromLane="1" toLane="0"/>
  <connection from="e:nt18,nt23" to="e:nt23,nt24" fromLane="0" toLane="0"/>
  <connection from="e:np13,nt23" to="e:nt23,nt22" fromLane="0" toLane="0"/>
  <connection from="e:nt22,nt23" to="e:nt23,nt18" fromLane="0" toLane="0"/>
  <connection from="e:nt24,nt23" to="e:nt23,np13" fromLane="0" toLane="0"/>
  <connection from="e:nt17,nt22" to="e:nt22,np14" fromLane="0" toLane="0"/>
  <connection from="e:np14,nt22" to="e:nt22,nt17" fromLane="0" toLane="0"/>
  <connection from="e:nt21,nt22" to="e:nt22,nt23" fromLane="0" toLane="0"/>
  <connection from="e:nt23,nt22" to="e:nt22,nt21" fromLane="0" toLane="0"/>
  <connection from="e:nt17,nt22" to="e:nt22,nt21" fromLane="0" toLane="1"/>
  <connection from="e:np14,nt22" to="e:nt22,nt23" fromLane="0" toLane="1"/>
  <connection from="e:nt21,nt22" to="e:nt22,np14" fromLane="1" toLane="0"/>
  <connection from="e:nt23,nt22" to="e:nt22,nt17" fromLane="1" toLane="0"/>
  <connection from="e:nt17,nt22" to="e:nt22,nt23" fromLane="0" toLane="0"/>
  <connection from="e:np14,nt22" to="e:nt22,nt21" fromLane="0" toLane="0"/>
  <connection from="e:nt21,nt22" to="e:nt22,nt17" fromLane="0" toLane="0"/>
  <connection from="e:nt23,nt22" to="e:nt22,np14" fromLane="0" toLane="0"/>
  <connection from="e:nt2,nt7" to="e:nt7,nt12" fromLane="0" toLane="0"/>
  <connection from="e:nt12,nt7" to="e:nt7,nt2" fromLane="0" toLane="0"/>
  <connection from="e:nt6,nt7" to="e:nt7,nt8" fromLane="0" toLane="0"/>
  <connection from="e:nt8,nt7" to="e:nt7,nt6" fromLane="0" toLane="0"/>
  <connection from="e:nt2,nt7" to="e:nt7,nt6" fromLane="0" toLane="1"/>
  <connection from="e:nt12,nt7" to="e:nt7,nt8" fromLane="0" toLane="1"/>
  <connection from="e:nt6,nt7" to="e:nt7,nt12" fromLane="1" toLane="0"/>
  <connection from="e:nt8,nt7" to="e:nt7,nt2" fromLane="1" toLane="0"/>
  <connection from="e:nt2,nt7" to="e:nt7,nt8" fromLane="0" toLane="0"/>
  <connection from="e:nt12,nt7" to="e:nt7,nt6" fromLane="0" toLane="0"/>
  <connection from="e:nt6,nt7" to="e:nt7,nt2" fromLane="0" toLane="0"/>
  <connection from="e:nt8,nt7" to="e:nt7,nt12" fromLane="0" toLane="0"/>
  <connection from="e:nt3,nt8" to="e:nt8,nt13" fromLane="0" toLane="0"/>
  <connection from="e:nt13,nt8" to="e:nt8,nt3" fromLane="0" toLane="0"/>
  <connection from="e:nt7,nt8" to="e:nt8,nt9" fromLane="0" toLane="0"/>
  <connection from="e:nt9,nt8" to="e:nt8,nt7" fromLane="0" toLane="0"/>
  <connection from="e:nt3,nt8" to="e:nt8,nt7" fromLane="0" toLane="1"/>
  <connection from="e:nt13,nt8" to="e:nt8,nt9" fromLane="0" toLane="1"/>
  <connection from="e:nt7,nt8" to="e:nt8,nt13" fromLane="1" toLane="0"/>
  <connection from="e:nt9,nt8" to="e:nt8,nt3" fromLane="1" toLane="0"/>
  <connection from="e:nt3,nt8" to="e:nt8,nt9" fromLane="0" toLane="0"/>
  <connection from="e:nt13,nt8" to="e:nt8,nt7" fromLane="0" toLane="0"/>
  <connection from="e:nt7,nt8" to="e:nt8,nt3" fromLane="0" toLane="0"/>
  <connection from="e:nt9,nt8" to="e:nt8,nt13" fromLane="0" toLane="0"/>
  <connection from="e:nt4,nt9" to="e:nt9,nt14" fromLane="0" toLane="0"/>
  <connection from="e:nt14,nt9" to="e:nt9,nt4" fromLane="0" toLane="0"/>
  <connection from="e:nt8,nt9" to="e:nt9,nt10" fromLane="0" toLane="0"/>
  <connection from="e:nt10,nt9" to="e:nt9,nt8" fromLane="0" toLane="0"/>
  <connection from="e:nt4,nt9" to="e:nt9,nt8" fromLane="0" toLane="1"/>
  <connection from="e:nt14,nt9" to="e:nt9,nt10" fromLane="0" toLane="1"/>
  <connection from="e:nt8,nt9" to="e:nt9,nt14" fromLane="1" toLane="0"/>
  <connection from="e:nt10,nt9" to="e:nt9,nt4" fromLane="1" toLane="0"/>
  <connection from="e:nt4,nt9" to="e:nt9,nt10" fromLane="0" toLane="0"/>
  <connection from="e:nt14,nt9" to="e:nt9,nt8" fromLane="0" toLane="0"/>
  <connection from="e:nt8,nt9" to="e:nt9,nt4" fromLane="0" toLane="0"/>
  <connection from="e:nt10,nt9" to="e:nt9,nt14" fromLane="0" toLane="0"/>
  <connection from="e:nt7,nt12" to="e:nt12,nt17" fromLane="0" toLane="0"/>
  <connection from="e:nt17,nt12" to="e:nt12,nt7" fromLane="0" toLane="0"/>
  <connection from="e:nt11,nt12" to="e:nt12,nt13" fromLane="0" toLane="0"/>
  <connection from="e:nt13,nt12" to="e:nt12,nt11" fromLane="0" toLane="0"/>
  <connection from="e:nt7,nt12" to="e:nt12,nt11" fromLane="0" toLane="1"/>
  <connection from="e:nt17,nt12" to="e:nt12,nt13" fromLane="0" toLane="1"/>
  <connection from="e:nt11,nt12" to="e:nt12,nt17" fromLane="1" toLane="0"/>
  <connection from="e:nt13,nt12" to="e:nt12,nt7" fromLane="1" toLane="0"/>
  <connection from="e:nt7,nt12" to="e:nt12,nt13" fromLane="0" toLane="0"/>
  <connection from="e:nt17,nt12" to="e:nt12,nt11" fromLane="0" toLane="0"/>
  <connection from="e:nt11,nt12" to="e:nt12,nt7" fromLane="0" toLane="0"/>
  <connection from="e:nt13,nt12" to="e:nt12,nt17" fromLane="0" toLane="0"/>
  <connection from="e:nt8,nt13" to="e:nt13,nt18" fromLane="0" toLane="0"/>
  <connection from="e:nt18,nt13" to="e:nt13,nt8" fromLane="0" toLane="0"/>
  <connection from="e:nt12,nt13" to="e:nt13,nt14" fromLane="0" toLane="0"/>
  <connection from="e:nt14,nt13" to="e:nt13,nt12" fromLane="0" toLane="0"/>
  <connection from="e:nt8,nt13" to="e:nt13,nt12" fromLane="0" toLane="1"/>
  <connection from="e:nt18,nt13" to="e:nt13,nt14" fromLane="0" toLane="1"/>
  <connection from="e:nt12,nt13" to="e:nt13,nt18" fromLane="1" toLane="0"/>
  <connection from="e:nt14,nt13" to="e:nt13,nt8" fromLane="1" toLane="0"/>
  <connection from="e:nt8,nt13" to="e:nt13,nt14" fromLane="0" toLane="0"/>
  <connection from="e:nt18,nt13" to="e:nt13,nt12" fromLane="0" toLane="0"/>
  <connection from="e:nt12,nt13" to="e:nt13,nt8" fromLane="0" toLane="0"/>
  <connection from="e:nt14,nt13" to="e:nt13,nt18" fromLane="0" toLane="0"/>
  <connection from="e:nt9,nt14" to="e:nt14,nt19" fromLane="0" toLane="0"/>
  <connection from="e:nt19,nt14" to="e:nt14,nt9" fromLane="0" toLane="0"/>
  <connection from="e:nt13,nt14" to="e:nt14,nt15" fromLane="0" toLane="0"/>
  <connection from="e:nt15,nt14" to="e:nt14,nt13" fromLane="0" toLane="0"/>
  <connection from="e:nt9,nt14" to="e:nt14,nt13" fromLane="0" toLane="1"/>
  <connection from="e:nt19,nt14" to="e:nt14,nt15" fromLane="0" toLane="1"/>
  <connection from="e:nt13,nt14" to="e:nt14,nt19" fromLane="1" toLane="0"/>
  <connection from="e:nt15,nt14" to="e:nt14,nt9" fromLane="1" toLane="0"/>
  <connection from="e:nt9,nt14" to="e:nt14,nt15" fromLane="0" toLane="0"/>
  <connection from="e:nt19,nt14" to="e:nt14,nt13" fromLane="0" toLane="0"/>
  <connection from="e:nt13,nt14" to="e:nt14,nt9" fromLane="0" toLane="0"/>
  <connection from="e:nt15,nt14" to="e:nt14,nt19" fromLane="0" toLane="0"/>
  <connection from="e:nt12,nt17" to="e:nt17,nt22" fromLane="0" toLane="0"/>
  <connection from="e:nt22,nt17" to="e:nt17,nt12" fromLane="0" toLane="0"/>
  <connection from="e:nt16,nt17" to="e:nt17,nt18" fromLane="0" toLane="0"/>
  <connection from="e:nt18,nt17" to="e:nt17,nt16" fromLane="0" toLane="0"/>
  <connection from="e:nt12,nt17" to="e:nt17,nt16" fromLane="0" toLane="1"/>
  <connection from="e:nt22,nt17" to="e:nt17,nt18" fromLane="0" toLane="1"/>
  <connection from="e:nt16,nt17" to="e:nt17,nt22" fromLane="1" toLane="0"/>
  <connection from="e:nt18,nt17" to="e:nt17,nt12" fromLane="1" toLane="0"/>
  <connection from="e:nt12,nt17" to="e:nt17,nt18" fromLane="0" toLane="0"/>
  <connection from="e:nt22,nt17" to="e:nt17,nt16" fromLane="0" toLane="0"/>
  <connection from="e:nt16,nt17" to="e:nt17,nt12" fromLane="0" toLane="0"/>
  <connection from="e:nt18,nt17" to="e:nt17,nt22" fromLane="0" toLane="0"/>
  <connection from="e:nt13,nt18" to="e:nt18,nt23" fromLane="0" toLane="0"/>
  <connection from="e:nt23,nt18" to="e:nt18,nt13" fromLane="0" toLane="0"/>
  <connection from="e:nt17,nt18" to="e:nt18,nt19" fromLane="0" toLane="0"/>
  <connection from="e:nt19,nt18" to="e:nt18,nt17" fromLane="0" toLane="0"/>
  <connection from="e:nt13,nt18" to="e:nt18,nt17" fromLane="0" toLane="1"/>
  <connection from="e:nt23,nt18" to="e:nt18,nt19" fromLane="0" toLane="1"/>
  <connection from="e:nt17,nt18" to="e:nt18,nt23" fromLane="1" toLane="0"/>
  <connection from="e:nt19,nt18" to="e:nt18,nt13" fromLane="1" toLane="0"/>
  <connection from="e:nt13,nt18" to="e:nt18,nt19" fromLane="0" toLane="0"/>
  <connection from="e:nt23,nt18" to="e:nt18,nt17" fromLane="0" toLane="0"/>
  <connection from="e:nt17,nt18" to="e:nt18,nt13" fromLane="0" toLane="0"/>
  <connection from="e:nt19,nt18" to="e:nt18,nt23" fromLane="0" toLane="0"/>
  <connection from="e:nt14,nt19" to="e:nt19,nt24" fromLane="0" toLane="0"/>
  <connection from="e:nt24,nt19" to="e:nt19,nt14" fromLane="0" toLane="0"/>
  <connection from="e:nt18,nt19" to="e:nt19,nt20" fromLane="0" toLane="0"/>
  <connection from="e:nt20,nt19" to="e:nt19,nt18" fromLane="0" toLane="0"/>
  <connection from="e:nt14,nt19" to="e:nt19,nt18" fromLane="0" toLane="1"/>
  <connection from="e:nt24,nt19" to="e:nt19,nt20" fromLane="0" toLane="1"/>
  <connection from="e:nt18,nt19" to="e:nt19,nt24" fromLane="1" toLane="0"/>
  <connection from="e:nt20,nt19" to="e:nt19,nt14" fromLane="1" toLane="0"/>
  <connection from="e:nt14,nt19" to="e:nt19,nt20" fromLane="0" toLane="0"/>
  <connection from="e:nt24,nt19" to="e:nt19,nt18" fromLane="0" toLane="0"/>
  <connection from="e:nt18,nt19" to="e:nt19,nt14" fromLane="0" toLane="0"/>
  <connection from="e:nt20,nt19" to="e:nt19,nt24" fromLane="0" toLane="0"/>
</connections>
