<?xml version="1.0" encoding="UTF-8"?>

<!-- generated on 10/30/19 16:56:53 by SUMO netconvert Version 0.32.0
<?xml version="1.0" encoding="UTF-8"?>

<configuration xmlns:xsi="http://www.w3.org/2001/XMLSchema-instance" xsi:noNamespaceSchemaLocation="http://sumo.dlr.de/xsd/netconvertConfiguration.xsd">

    <input>
        <node-files value="exp.nod.xml"/>
        <edge-files value="exp.edg.xml"/>
        <connection-files value="exp.con.xml"/>
        <tllogic-files value="exp.tll.xml"/>
        <type-files value="exp.typ.xml"/>
    </input>

    <output>
        <output-file value="exp.net.xml"/>
    </output>

</configuration>
-->

<net version="0.27" xmlns:xsi="http://www.w3.org/2001/XMLSchema-instance" xsi:noNamespaceSchemaLocation="http://sumo.dlr.de/xsd/net_file.xsd">

    <location netOffset="75.00,75.00" convBoundary="0.00,0.00,950.00,950.00" origBoundary="-75.00,-75.00,875.00,875.00" projParameter="!"/>

    <type id="a" priority="2" numLanes="2" speed="20.00"/>
    <type id="b" priority="1" numLanes="1" speed="11.00"/>

    <edge id=":np1_0" function="internal">
        <lane id=":np1_0_0" index="0" speed="11.00" length="4.82" shape="73.35,0.00 74.18,-1.24 75.00,-1.65 75.83,-1.24 76.65,0.00"/>
    </edge>
    <edge id=":np10_0" function="internal">
        <lane id=":np10_0_0" index="0" speed="20.00" length="4.82" shape="950.00,873.35 951.24,874.18 951.65,875.00 951.24,875.83 950.00,876.65"/>
    </edge>
    <edge id=":np11_0" function="internal">
        <lane id=":np11_0_0" index="0" speed="11.00" length="4.82" shape="876.65,950.00 875.82,951.24 875.00,951.65 874.17,951.24 873.35,950.00"/>
    </edge>
    <edge id=":np12_0" function="internal">
        <lane id=":np12_0_0" index="0" speed="11.00" length="4.82" shape="676.65,950.00 675.82,951.24 675.00,951.65 674.17,951.24 673.35,950.00"/>
    </edge>
    <edge id=":np13_0" function="internal">
        <lane id=":np13_0_0" index="0" speed="11.00" length="4.82" shape="476.65,950.00 475.82,951.24 475.00,951.65 474.18,951.24 473.35,950.00"/>
    </edge>
    <edge id=":np14_0" function="internal">
        <lane id=":np14_0_0" index="0" speed="11.00" length="4.82" shape="276.65,950.00 275.83,951.24 275.00,951.65 274.18,951.24 273.35,950.00"/>
    </edge>
    <edge id=":np15_0" function="internal">
        <lane id=":np15_0_0" index="0" speed="11.00" length="4.82" shape="76.65,950.00 75.82,951.24 75.00,951.65 74.17,951.24 73.35,950.00"/>
    </edge>
    <edge id=":np16_0" function="internal">
        <lane id=":np16_0_0" index="0" speed="20.00" length="4.82" shape="0.00,876.65 -1.24,875.82 -1.65,875.00 -1.24,874.17 0.00,873.35"/>
    </edge>
    <edge id=":np17_0" function="internal">
        <lane id=":np17_0_0" index="0" speed="20.00" length="4.82" shape="0.00,676.65 -1.24,675.82 -1.65,675.00 -1.24,674.17 0.00,673.35"/>
    </edge>
    <edge id=":np18_0" function="internal">
        <lane id=":np18_0_0" index="0" speed="20.00" length="4.82" shape="0.00,476.65 -1.24,475.82 -1.65,475.00 -1.24,474.18 0.00,473.35"/>
    </edge>
    <edge id=":np19_0" function="internal">
        <lane id=":np19_0_0" index="0" speed="20.00" length="4.82" shape="0.00,276.65 -1.24,275.83 -1.65,275.00 -1.24,274.18 0.00,273.35"/>
    </edge>
    <edge id=":np2_0" function="internal">
        <lane id=":np2_0_0" index="0" speed="11.00" length="4.82" shape="273.35,0.00 274.17,-1.24 275.00,-1.65 275.82,-1.24 276.65,0.00"/>
    </edge>
    <edge id=":np20_0" function="internal">
        <lane id=":np20_0_0" index="0" speed="20.00" length="4.82" shape="0.00,76.65 -1.24,75.82 -1.65,75.00 -1.24,74.17 0.00,73.35"/>
    </edge>
    <edge id=":np3_0" function="internal">
        <lane id=":np3_0_0" index="0" speed="11.00" length="4.82" shape="473.35,0.00 474.18,-1.24 475.00,-1.65 475.82,-1.24 476.65,0.00"/>
    </edge>
    <edge id=":np4_0" function="internal">
        <lane id=":np4_0_0" index="0" speed="11.00" length="4.82" shape="673.35,0.00 674.18,-1.24 675.00,-1.65 675.83,-1.24 676.65,0.00"/>
    </edge>
    <edge id=":np5_0" function="internal">
        <lane id=":np5_0_0" index="0" speed="11.00" length="4.82" shape="873.35,0.00 874.18,-1.24 875.00,-1.65 875.83,-1.24 876.65,0.00"/>
    </edge>
    <edge id=":np6_0" function="internal">
        <lane id=":np6_0_0" index="0" speed="20.00" length="4.82" shape="950.00,73.35 951.24,74.18 951.65,75.00 951.24,75.83 950.00,76.65"/>
    </edge>
    <edge id=":np7_0" function="internal">
        <lane id=":np7_0_0" index="0" speed="20.00" length="4.82" shape="950.00,273.35 951.24,274.17 951.65,275.00 951.24,275.82 950.00,276.65"/>
    </edge>
    <edge id=":np8_0" function="internal">
        <lane id=":np8_0_0" index="0" speed="20.00" length="4.82" shape="950.00,473.35 951.24,474.18 951.65,475.00 951.24,475.82 950.00,476.65"/>
    </edge>
    <edge id=":np9_0" function="internal">
        <lane id=":np9_0_0" index="0" speed="20.00" length="4.82" shape="950.00,673.35 951.24,674.18 951.65,675.00 951.24,675.83 950.00,676.65"/>
    </edge>
    <edge id=":nt1_0" function="internal">
        <lane id=":nt1_0_0" index="0" speed="15.50" length="5.00" shape="73.35,83.05 73.16,81.69 72.57,80.72 71.61,80.14 70.25,79.95"/>
    </edge>
    <edge id=":nt1_1" function="internal">
        <lane id=":nt1_1_0" index="0" speed="11.00" length="16.10" shape="73.35,83.05 73.35,66.95"/>
    </edge>
    <edge id=":nt1_2" function="internal">
        <lane id=":nt1_2_0" index="0" speed="15.50" length="7.66" shape="73.35,83.05 73.75,78.81 74.95,75.78 75.05,75.68"/>
    </edge>
    <edge id=":nt1_12" function="internal">
        <lane id=":nt1_12_0" index="0" speed="15.50" length="5.43" shape="75.05,75.68 76.95,73.96 79.75,73.35"/>
    </edge>
    <edge id=":nt1_3" function="internal">
        <lane id=":nt1_3_0" index="0" speed="15.50" length="5.00" shape="79.75,79.95 78.39,80.14 77.42,80.73 76.84,81.69 76.65,83.05"/>
    </edge>
    <edge id=":nt1_4" function="internal">
        <lane id=":nt1_4_0" index="0" speed="20.00" length="9.50" shape="79.75,79.95 70.25,79.95"/>
    </edge>
    <edge id=":nt1_5" function="internal">
        <lane id=":nt1_5_0" index="0" speed="15.50" length="13.09" shape="79.75,76.65 76.95,76.04 74.95,74.23 73.75,71.19 73.35,66.95"/>
    </edge>
    <edge id=":nt1_6" function="internal">
        <lane id=":nt1_6_0" index="0" speed="15.50" length="5.00" shape="76.65,66.95 76.84,68.31 77.42,69.28 78.39,69.86 79.75,70.05"/>
    </edge>
    <edge id=":nt1_7" function="internal">
        <lane id=":nt1_7_0" index="0" speed="11.00" length="16.10" shape="76.65,66.95 76.65,83.05"/>
    </edge>
    <edge id=":nt1_8" function="internal">
        <lane id=":nt1_8_0" index="0" speed="15.50" length="7.66" shape="76.65,66.95 76.25,71.19 75.05,74.23 74.95,74.32"/>
    </edge>
    <edge id=":nt1_13" function="internal">
        <lane id=":nt1_13_0" index="0" speed="15.50" length="5.43" shape="74.95,74.32 73.05,76.04 70.25,76.65"/>
    </edge>
    <edge id=":nt1_9" function="internal">
        <lane id=":nt1_9_0" index="0" speed="15.50" length="5.00" shape="70.25,70.05 71.61,69.86 72.58,69.28 73.16,68.31 73.35,66.95"/>
    </edge>
    <edge id=":nt1_10" function="internal">
        <lane id=":nt1_10_0" index="0" speed="20.00" length="9.50" shape="70.25,70.05 79.75,70.05"/>
    </edge>
    <edge id=":nt1_11" function="internal">
        <lane id=":nt1_11_0" index="0" speed="15.50" length="13.09" shape="70.25,73.35 73.05,73.96 75.05,75.78 76.25,78.81 76.65,83.05"/>
    </edge>
    <edge id=":nt10_0" function="internal">
        <lane id=":nt10_0_0" index="0" speed="15.50" length="5.00" shape="873.35,283.05 873.16,281.69 872.58,280.73 871.61,280.14 870.25,279.95"/>
    </edge>
    <edge id=":nt10_1" function="internal">
        <lane id=":nt10_1_0" index="0" speed="11.00" length="16.10" shape="873.35,283.05 873.35,266.95"/>
    </edge>
    <edge id=":nt10_2" function="internal">
        <lane id=":nt10_2_0" index="0" speed="15.50" length="7.66" shape="873.35,283.05 873.75,278.81 874.95,275.77 875.05,275.68"/>
    </edge>
    <edge id=":nt10_12" function="internal">
        <lane id=":nt10_12_0" index="0" speed="15.50" length="5.43" shape="875.05,275.68 876.95,273.96 879.75,273.35"/>
    </edge>
    <edge id=":nt10_3" function="internal">
        <lane id=":nt10_3_0" index="0" speed="15.50" length="5.00" shape="879.75,279.95 878.39,280.14 877.43,280.72 876.84,281.69 876.65,283.05"/>
    </edge>
    <edge id=":nt10_4" function="internal">
        <lane id=":nt10_4_0" index="0" speed="20.00" length="9.50" shape="879.75,279.95 870.25,279.95"/>
    </edge>
    <edge id=":nt10_5" function="internal">
        <lane id=":nt10_5_0" index="0" speed="15.50" length="13.09" shape="879.75,276.65 876.95,276.04 874.95,274.22 873.75,271.19 873.35,266.95"/>
    </edge>
    <edge id=":nt10_6" function="internal">
        <lane id=":nt10_6_0" index="0" speed="15.50" length="5.00" shape="876.65,266.95 876.84,268.31 877.42,269.27 878.39,269.86 879.75,270.05"/>
    </edge>
    <edge id=":nt10_7" function="internal">
        <lane id=":nt10_7_0" index="0" speed="11.00" length="16.10" shape="876.65,266.95 876.65,283.05"/>
    </edge>
    <edge id=":nt10_8" function="internal">
        <lane id=":nt10_8_0" index="0" speed="15.50" length="7.66" shape="876.65,266.95 876.25,271.19 875.05,274.23 874.95,274.32"/>
    </edge>
    <edge id=":nt10_13" function="internal">
        <lane id=":nt10_13_0" index="0" speed="15.50" length="5.43" shape="874.95,274.32 873.05,276.04 870.25,276.65"/>
    </edge>
    <edge id=":nt10_9" function="internal">
        <lane id=":nt10_9_0" index="0" speed="15.50" length="5.00" shape="870.25,270.05 871.61,269.86 872.57,269.28 873.16,268.31 873.35,266.95"/>
    </edge>
    <edge id=":nt10_10" function="internal">
        <lane id=":nt10_10_0" index="0" speed="20.00" length="9.50" shape="870.25,270.05 879.75,270.05"/>
    </edge>
    <edge id=":nt10_11" function="internal">
        <lane id=":nt10_11_0" index="0" speed="15.50" length="13.09" shape="870.25,273.35 873.05,273.96 875.05,275.78 876.25,278.81 876.65,283.05"/>
    </edge>
    <edge id=":nt11_0" function="internal">
        <lane id=":nt11_0_0" index="0" speed="15.50" length="5.00" shape="73.35,483.05 73.16,481.69 72.57,480.73 71.61,480.14 70.25,479.95"/>
    </edge>
    <edge id=":nt11_1" function="internal">
        <lane id=":nt11_1_0" index="0" speed="11.00" length="16.10" shape="73.35,483.05 73.35,466.95"/>
    </edge>
    <edge id=":nt11_2" function="internal">
        <lane id=":nt11_2_0" index="0" speed="15.50" length="7.66" shape="73.35,483.05 73.75,478.81 74.95,475.77 75.05,475.68"/>
    </edge>
    <edge id=":nt11_12" function="internal">
        <lane id=":nt11_12_0" index="0" speed="15.50" length="5.43" shape="75.05,475.68 76.95,473.96 79.75,473.35"/>
    </edge>
    <edge id=":nt11_3" function="internal">
        <lane id=":nt11_3_0" index="0" speed="15.50" length="5.00" shape="79.75,479.95 78.39,480.14 77.42,480.72 76.84,481.69 76.65,483.05"/>
    </edge>
    <edge id=":nt11_4" function="internal">
        <lane id=":nt11_4_0" index="0" speed="20.00" length="9.50" shape="79.75,479.95 70.25,479.95"/>
    </edge>
    <edge id=":nt11_5" function="internal">
        <lane id=":nt11_5_0" index="0" speed="15.50" length="13.09" shape="79.75,476.65 76.95,476.04 74.95,474.22 73.75,471.19 73.35,466.95"/>
    </edge>
    <edge id=":nt11_6" function="internal">
        <lane id=":nt11_6_0" index="0" speed="15.50" length="5.00" shape="76.65,466.95 76.84,468.31 77.43,469.27 78.39,469.86 79.75,470.05"/>
    </edge>
    <edge id=":nt11_7" function="internal">
        <lane id=":nt11_7_0" index="0" speed="11.00" length="16.10" shape="76.65,466.95 76.65,483.05"/>
    </edge>
    <edge id=":nt11_8" function="internal">
        <lane id=":nt11_8_0" index="0" speed="15.50" length="7.66" shape="76.65,466.95 76.25,471.19 75.05,474.23 74.95,474.32"/>
    </edge>
    <edge id=":nt11_13" function="internal">
        <lane id=":nt11_13_0" index="0" speed="15.50" length="5.43" shape="74.95,474.32 73.05,476.04 70.25,476.65"/>
    </edge>
    <edge id=":nt11_9" function="internal">
        <lane id=":nt11_9_0" index="0" speed="15.50" length="5.00" shape="70.25,470.05 71.61,469.86 72.58,469.28 73.16,468.31 73.35,466.95"/>
    </edge>
    <edge id=":nt11_10" function="internal">
        <lane id=":nt11_10_0" index="0" speed="20.00" length="9.50" shape="70.25,470.05 79.75,470.05"/>
    </edge>
    <edge id=":nt11_11" function="internal">
        <lane id=":nt11_11_0" index="0" speed="15.50" length="13.09" shape="70.25,473.35 73.05,473.96 75.05,475.78 76.25,478.81 76.65,483.05"/>
    </edge>
    <edge id=":nt12_0" function="internal">
        <lane id=":nt12_0_0" index="0" speed="15.50" length="5.00" shape="273.35,483.05 273.16,481.69 272.58,480.73 271.61,480.14 270.25,479.95"/>
    </edge>
    <edge id=":nt12_1" function="internal">
        <lane id=":nt12_1_0" index="0" speed="11.00" length="16.10" shape="273.35,483.05 273.35,466.95"/>
    </edge>
    <edge id=":nt12_2" function="internal">
        <lane id=":nt12_2_0" index="0" speed="15.50" length="7.66" shape="273.35,483.05 273.75,478.81 274.95,475.77 275.05,475.68"/>
    </edge>
    <edge id=":nt12_12" function="internal">
        <lane id=":nt12_12_0" index="0" speed="15.50" length="5.43" shape="275.05,475.68 276.95,473.96 279.75,473.35"/>
    </edge>
    <edge id=":nt12_3" function="internal">
        <lane id=":nt12_3_0" index="0" speed="15.50" length="5.00" shape="279.75,479.95 278.39,480.14 277.42,480.72 276.84,481.69 276.65,483.05"/>
    </edge>
    <edge id=":nt12_4" function="internal">
        <lane id=":nt12_4_0" index="0" speed="20.00" length="9.50" shape="279.75,479.95 270.25,479.95"/>
    </edge>
    <edge id=":nt12_5" function="internal">
        <lane id=":nt12_5_0" index="0" speed="15.50" length="13.09" shape="279.75,476.65 276.95,476.04 274.95,474.22 273.75,471.19 273.35,466.95"/>
    </edge>
    <edge id=":nt12_6" function="internal">
        <lane id=":nt12_6_0" index="0" speed="15.50" length="5.00" shape="276.65,466.95 276.84,468.31 277.42,469.27 278.39,469.86 279.75,470.05"/>
    </edge>
    <edge id=":nt12_7" function="internal">
        <lane id=":nt12_7_0" index="0" speed="11.00" length="16.10" shape="276.65,466.95 276.65,483.05"/>
    </edge>
    <edge id=":nt12_8" function="internal">
        <lane id=":nt12_8_0" index="0" speed="15.50" length="7.66" shape="276.65,466.95 276.25,471.19 275.05,474.23 274.95,474.32"/>
    </edge>
    <edge id=":nt12_13" function="internal">
        <lane id=":nt12_13_0" index="0" speed="15.50" length="5.43" shape="274.95,474.32 273.05,476.04 270.25,476.65"/>
    </edge>
    <edge id=":nt12_9" function="internal">
        <lane id=":nt12_9_0" index="0" speed="15.50" length="5.00" shape="270.25,470.05 271.61,469.86 272.58,469.28 273.16,468.31 273.35,466.95"/>
    </edge>
    <edge id=":nt12_10" function="internal">
        <lane id=":nt12_10_0" index="0" speed="20.00" length="9.50" shape="270.25,470.05 279.75,470.05"/>
    </edge>
    <edge id=":nt12_11" function="internal">
        <lane id=":nt12_11_0" index="0" speed="15.50" length="13.09" shape="270.25,473.35 273.05,473.96 275.05,475.78 276.25,478.81 276.65,483.05"/>
    </edge>
    <edge id=":nt13_0" function="internal">
        <lane id=":nt13_0_0" index="0" speed="15.50" length="5.00" shape="473.35,483.05 473.16,481.69 472.58,480.73 471.61,480.14 470.25,479.95"/>
    </edge>
    <edge id=":nt13_1" function="internal">
        <lane id=":nt13_1_0" index="0" speed="11.00" length="16.10" shape="473.35,483.05 473.35,466.95"/>
    </edge>
    <edge id=":nt13_2" function="internal">
        <lane id=":nt13_2_0" index="0" speed="15.50" length="7.66" shape="473.35,483.05 473.75,478.81 474.95,475.77 475.05,475.68"/>
    </edge>
    <edge id=":nt13_12" function="internal">
        <lane id=":nt13_12_0" index="0" speed="15.50" length="5.43" shape="475.05,475.68 476.95,473.96 479.75,473.35"/>
    </edge>
    <edge id=":nt13_3" function="internal">
        <lane id=":nt13_3_0" index="0" speed="15.50" length="5.00" shape="479.75,479.95 478.39,480.14 477.42,480.72 476.84,481.69 476.65,483.05"/>
    </edge>
    <edge id=":nt13_4" function="internal">
        <lane id=":nt13_4_0" index="0" speed="20.00" length="9.50" shape="479.75,479.95 470.25,479.95"/>
    </edge>
    <edge id=":nt13_5" function="internal">
        <lane id=":nt13_5_0" index="0" speed="15.50" length="13.09" shape="479.75,476.65 476.95,476.04 474.95,474.22 473.75,471.19 473.35,466.95"/>
    </edge>
    <edge id=":nt13_6" function="internal">
        <lane id=":nt13_6_0" index="0" speed="15.50" length="5.00" shape="476.65,466.95 476.84,468.31 477.42,469.27 478.39,469.86 479.75,470.05"/>
    </edge>
    <edge id=":nt13_7" function="internal">
        <lane id=":nt13_7_0" index="0" speed="11.00" length="16.10" shape="476.65,466.95 476.65,483.05"/>
    </edge>
    <edge id=":nt13_8" function="internal">
        <lane id=":nt13_8_0" index="0" speed="15.50" length="7.66" shape="476.65,466.95 476.25,471.19 475.05,474.23 474.95,474.32"/>
    </edge>
    <edge id=":nt13_13" function="internal">
        <lane id=":nt13_13_0" index="0" speed="15.50" length="5.43" shape="474.95,474.32 473.05,476.04 470.25,476.65"/>
    </edge>
    <edge id=":nt13_9" function="internal">
        <lane id=":nt13_9_0" index="0" speed="15.50" length="5.00" shape="470.25,470.05 471.61,469.86 472.58,469.28 473.16,468.31 473.35,466.95"/>
    </edge>
    <edge id=":nt13_10" function="internal">
        <lane id=":nt13_10_0" index="0" speed="20.00" length="9.50" shape="470.25,470.05 479.75,470.05"/>
    </edge>
    <edge id=":nt13_11" function="internal">
        <lane id=":nt13_11_0" index="0" speed="15.50" length="13.09" shape="470.25,473.35 473.05,473.96 475.05,475.78 476.25,478.81 476.65,483.05"/>
    </edge>
    <edge id=":nt14_0" function="internal">
        <lane id=":nt14_0_0" index="0" speed="15.50" length="5.00" shape="673.35,483.05 673.16,481.69 672.58,480.73 671.61,480.14 670.25,479.95"/>
    </edge>
    <edge id=":nt14_1" function="internal">
        <lane id=":nt14_1_0" index="0" speed="11.00" length="16.10" shape="673.35,483.05 673.35,466.95"/>
    </edge>
    <edge id=":nt14_2" function="internal">
        <lane id=":nt14_2_0" index="0" speed="15.50" length="7.66" shape="673.35,483.05 673.75,478.81 674.95,475.77 675.05,475.68"/>
    </edge>
    <edge id=":nt14_12" function="internal">
        <lane id=":nt14_12_0" index="0" speed="15.50" length="5.43" shape="675.05,475.68 676.95,473.96 679.75,473.35"/>
    </edge>
    <edge id=":nt14_3" function="internal">
        <lane id=":nt14_3_0" index="0" speed="15.50" length="5.00" shape="679.75,479.95 678.39,480.14 677.42,480.72 676.84,481.69 676.65,483.05"/>
    </edge>
    <edge id=":nt14_4" function="internal">
        <lane id=":nt14_4_0" index="0" speed="20.00" length="9.50" shape="679.75,479.95 670.25,479.95"/>
    </edge>
    <edge id=":nt14_5" function="internal">
        <lane id=":nt14_5_0" index="0" speed="15.50" length="13.09" shape="679.75,476.65 676.95,476.04 674.95,474.22 673.75,471.19 673.35,466.95"/>
    </edge>
    <edge id=":nt14_6" function="internal">
        <lane id=":nt14_6_0" index="0" speed="15.50" length="5.00" shape="676.65,466.95 676.84,468.31 677.42,469.27 678.39,469.86 679.75,470.05"/>
    </edge>
    <edge id=":nt14_7" function="internal">
        <lane id=":nt14_7_0" index="0" speed="11.00" length="16.10" shape="676.65,466.95 676.65,483.05"/>
    </edge>
    <edge id=":nt14_8" function="internal">
        <lane id=":nt14_8_0" index="0" speed="15.50" length="7.66" shape="676.65,466.95 676.25,471.19 675.05,474.23 674.95,474.32"/>
    </edge>
    <edge id=":nt14_13" function="internal">
        <lane id=":nt14_13_0" index="0" speed="15.50" length="5.43" shape="674.95,474.32 673.05,476.04 670.25,476.65"/>
    </edge>
    <edge id=":nt14_9" function="internal">
        <lane id=":nt14_9_0" index="0" speed="15.50" length="5.00" shape="670.25,470.05 671.61,469.86 672.58,469.28 673.16,468.31 673.35,466.95"/>
    </edge>
    <edge id=":nt14_10" function="internal">
        <lane id=":nt14_10_0" index="0" speed="20.00" length="9.50" shape="670.25,470.05 679.75,470.05"/>
    </edge>
    <edge id=":nt14_11" function="internal">
        <lane id=":nt14_11_0" index="0" speed="15.50" length="13.09" shape="670.25,473.35 673.05,473.96 675.05,475.78 676.25,478.81 676.65,483.05"/>
    </edge>
    <edge id=":nt15_0" function="internal">
        <lane id=":nt15_0_0" index="0" speed="15.50" length="5.00" shape="873.35,483.05 873.16,481.69 872.58,480.73 871.61,480.14 870.25,479.95"/>
    </edge>
    <edge id=":nt15_1" function="internal">
        <lane id=":nt15_1_0" index="0" speed="11.00" length="16.10" shape="873.35,483.05 873.35,466.95"/>
    </edge>
    <edge id=":nt15_2" function="internal">
        <lane id=":nt15_2_0" index="0" speed="15.50" length="7.66" shape="873.35,483.05 873.75,478.81 874.95,475.77 875.05,475.68"/>
    </edge>
    <edge id=":nt15_12" function="internal">
        <lane id=":nt15_12_0" index="0" speed="15.50" length="5.43" shape="875.05,475.68 876.95,473.96 879.75,473.35"/>
    </edge>
    <edge id=":nt15_3" function="internal">
        <lane id=":nt15_3_0" index="0" speed="15.50" length="5.00" shape="879.75,479.95 878.39,480.14 877.43,480.72 876.84,481.69 876.65,483.05"/>
    </edge>
    <edge id=":nt15_4" function="internal">
        <lane id=":nt15_4_0" index="0" speed="20.00" length="9.50" shape="879.75,479.95 870.25,479.95"/>
    </edge>
    <edge id=":nt15_5" function="internal">
        <lane id=":nt15_5_0" index="0" speed="15.50" length="13.09" shape="879.75,476.65 876.95,476.04 874.95,474.22 873.75,471.19 873.35,466.95"/>
    </edge>
    <edge id=":nt15_6" function="internal">
        <lane id=":nt15_6_0" index="0" speed="15.50" length="5.00" shape="876.65,466.95 876.84,468.31 877.42,469.27 878.39,469.86 879.75,470.05"/>
    </edge>
    <edge id=":nt15_7" function="internal">
        <lane id=":nt15_7_0" index="0" speed="11.00" length="16.10" shape="876.65,466.95 876.65,483.05"/>
    </edge>
    <edge id=":nt15_8" function="internal">
        <lane id=":nt15_8_0" index="0" speed="15.50" length="7.66" shape="876.65,466.95 876.25,471.19 875.05,474.23 874.95,474.32"/>
    </edge>
    <edge id=":nt15_13" function="internal">
        <lane id=":nt15_13_0" index="0" speed="15.50" length="5.43" shape="874.95,474.32 873.05,476.04 870.25,476.65"/>
    </edge>
    <edge id=":nt15_9" function="internal">
        <lane id=":nt15_9_0" index="0" speed="15.50" length="5.00" shape="870.25,470.05 871.61,469.86 872.57,469.28 873.16,468.31 873.35,466.95"/>
    </edge>
    <edge id=":nt15_10" function="internal">
        <lane id=":nt15_10_0" index="0" speed="20.00" length="9.50" shape="870.25,470.05 879.75,470.05"/>
    </edge>
    <edge id=":nt15_11" function="internal">
        <lane id=":nt15_11_0" index="0" speed="15.50" length="13.09" shape="870.25,473.35 873.05,473.96 875.05,475.78 876.25,478.81 876.65,483.05"/>
    </edge>
    <edge id=":nt16_0" function="internal">
        <lane id=":nt16_0_0" index="0" speed="15.50" length="5.00" shape="73.35,683.05 73.16,681.69 72.57,680.73 71.61,680.14 70.25,679.95"/>
    </edge>
    <edge id=":nt16_1" function="internal">
        <lane id=":nt16_1_0" index="0" speed="11.00" length="16.10" shape="73.35,683.05 73.35,666.95"/>
    </edge>
    <edge id=":nt16_2" function="internal">
        <lane id=":nt16_2_0" index="0" speed="15.50" length="7.66" shape="73.35,683.05 73.75,678.81 74.95,675.77 75.05,675.68"/>
    </edge>
    <edge id=":nt16_12" function="internal">
        <lane id=":nt16_12_0" index="0" speed="15.50" length="5.43" shape="75.05,675.68 76.95,673.96 79.75,673.35"/>
    </edge>
    <edge id=":nt16_3" function="internal">
        <lane id=":nt16_3_0" index="0" speed="15.50" length="5.00" shape="79.75,679.95 78.39,680.14 77.43,680.73 76.84,681.69 76.65,683.05"/>
    </edge>
    <edge id=":nt16_4" function="internal">
        <lane id=":nt16_4_0" index="0" speed="20.00" length="9.50" shape="79.75,679.95 70.25,679.95"/>
    </edge>
    <edge id=":nt16_5" function="internal">
        <lane id=":nt16_5_0" index="0" speed="15.50" length="13.09" shape="79.75,676.65 76.95,676.04 74.95,674.22 73.75,671.19 73.35,666.95"/>
    </edge>
    <edge id=":nt16_6" function="internal">
        <lane id=":nt16_6_0" index="0" speed="15.50" length="5.00" shape="76.65,666.95 76.84,668.31 77.43,669.27 78.39,669.86 79.75,670.05"/>
    </edge>
    <edge id=":nt16_7" function="internal">
        <lane id=":nt16_7_0" index="0" speed="11.00" length="16.10" shape="76.65,666.95 76.65,683.05"/>
    </edge>
    <edge id=":nt16_8" function="internal">
        <lane id=":nt16_8_0" index="0" speed="15.50" length="7.66" shape="76.65,666.95 76.25,671.19 75.05,674.23 74.95,674.32"/>
    </edge>
    <edge id=":nt16_13" function="internal">
        <lane id=":nt16_13_0" index="0" speed="15.50" length="5.43" shape="74.95,674.32 73.05,676.04 70.25,676.65"/>
    </edge>
    <edge id=":nt16_9" function="internal">
        <lane id=":nt16_9_0" index="0" speed="15.50" length="5.00" shape="70.25,670.05 71.61,669.86 72.57,669.27 73.16,668.31 73.35,666.95"/>
    </edge>
    <edge id=":nt16_10" function="internal">
        <lane id=":nt16_10_0" index="0" speed="20.00" length="9.50" shape="70.25,670.05 79.75,670.05"/>
    </edge>
    <edge id=":nt16_11" function="internal">
        <lane id=":nt16_11_0" index="0" speed="15.50" length="13.09" shape="70.25,673.35 73.05,673.96 75.05,675.78 76.25,678.81 76.65,683.05"/>
    </edge>
    <edge id=":nt17_0" function="internal">
        <lane id=":nt17_0_0" index="0" speed="15.50" length="5.00" shape="273.35,683.05 273.16,681.69 272.58,680.73 271.61,680.14 270.25,679.95"/>
    </edge>
    <edge id=":nt17_1" function="internal">
        <lane id=":nt17_1_0" index="0" speed="11.00" length="16.10" shape="273.35,683.05 273.35,666.95"/>
    </edge>
    <edge id=":nt17_2" function="internal">
        <lane id=":nt17_2_0" index="0" speed="15.50" length="7.66" shape="273.35,683.05 273.75,678.81 274.95,675.77 275.05,675.68"/>
    </edge>
    <edge id=":nt17_12" function="internal">
        <lane id=":nt17_12_0" index="0" speed="15.50" length="5.43" shape="275.05,675.68 276.95,673.96 279.75,673.35"/>
    </edge>
    <edge id=":nt17_3" function="internal">
        <lane id=":nt17_3_0" index="0" speed="15.50" length="5.00" shape="279.75,679.95 278.39,680.14 277.42,680.73 276.84,681.69 276.65,683.05"/>
    </edge>
    <edge id=":nt17_4" function="internal">
        <lane id=":nt17_4_0" index="0" speed="20.00" length="9.50" shape="279.75,679.95 270.25,679.95"/>
    </edge>
    <edge id=":nt17_5" function="internal">
        <lane id=":nt17_5_0" index="0" speed="15.50" length="13.09" shape="279.75,676.65 276.95,676.04 274.95,674.22 273.75,671.19 273.35,666.95"/>
    </edge>
    <edge id=":nt17_6" function="internal">
        <lane id=":nt17_6_0" index="0" speed="15.50" length="5.00" shape="276.65,666.95 276.84,668.31 277.42,669.27 278.39,669.86 279.75,670.05"/>
    </edge>
    <edge id=":nt17_7" function="internal">
        <lane id=":nt17_7_0" index="0" speed="11.00" length="16.10" shape="276.65,666.95 276.65,683.05"/>
    </edge>
    <edge id=":nt17_8" function="internal">
        <lane id=":nt17_8_0" index="0" speed="15.50" length="7.66" shape="276.65,666.95 276.25,671.19 275.05,674.23 274.95,674.32"/>
    </edge>
    <edge id=":nt17_13" function="internal">
        <lane id=":nt17_13_0" index="0" speed="15.50" length="5.43" shape="274.95,674.32 273.05,676.04 270.25,676.65"/>
    </edge>
    <edge id=":nt17_9" function="internal">
        <lane id=":nt17_9_0" index="0" speed="15.50" length="5.00" shape="270.25,670.05 271.61,669.86 272.58,669.27 273.16,668.31 273.35,666.95"/>
    </edge>
    <edge id=":nt17_10" function="internal">
        <lane id=":nt17_10_0" index="0" speed="20.00" length="9.50" shape="270.25,670.05 279.75,670.05"/>
    </edge>
    <edge id=":nt17_11" function="internal">
        <lane id=":nt17_11_0" index="0" speed="15.50" length="13.09" shape="270.25,673.35 273.05,673.96 275.05,675.78 276.25,678.81 276.65,683.05"/>
    </edge>
    <edge id=":nt18_0" function="internal">
        <lane id=":nt18_0_0" index="0" speed="15.50" length="5.00" shape="473.35,683.05 473.16,681.69 472.58,680.73 471.61,680.14 470.25,679.95"/>
    </edge>
    <edge id=":nt18_1" function="internal">
        <lane id=":nt18_1_0" index="0" speed="11.00" length="16.10" shape="473.35,683.05 473.35,666.95"/>
    </edge>
    <edge id=":nt18_2" function="internal">
        <lane id=":nt18_2_0" index="0" speed="15.50" length="7.66" shape="473.35,683.05 473.75,678.81 474.95,675.77 475.05,675.68"/>
    </edge>
    <edge id=":nt18_12" function="internal">
        <lane id=":nt18_12_0" index="0" speed="15.50" length="5.43" shape="475.05,675.68 476.95,673.96 479.75,673.35"/>
    </edge>
    <edge id=":nt18_3" function="internal">
        <lane id=":nt18_3_0" index="0" speed="15.50" length="5.00" shape="479.75,679.95 478.39,680.14 477.42,680.73 476.84,681.69 476.65,683.05"/>
    </edge>
    <edge id=":nt18_4" function="internal">
        <lane id=":nt18_4_0" index="0" speed="20.00" length="9.50" shape="479.75,679.95 470.25,679.95"/>
    </edge>
    <edge id=":nt18_5" function="internal">
        <lane id=":nt18_5_0" index="0" speed="15.50" length="13.09" shape="479.75,676.65 476.95,676.04 474.95,674.22 473.75,671.19 473.35,666.95"/>
    </edge>