<edges>
  <edge id="e:nt5,np6" from="nt5" to="np6" type="a"/>
  <edge id="e:np6,nt5" from="np6" to="nt5" type="a"/>
  <edge id="e:nt10,np7" from="nt10" to="np7" type="a"/>
  <edge id="e:np7,nt10" from="np7" to="nt10" type="a"/>
  <edge id="e:nt15,np8" from="nt15" to="np8" type="a"/>
  <edge id="e:np8,nt15" from="np8" to="nt15" type="a"/>
  <edge id="e:nt20,np9" from="nt20" to="np9" type="a"/>
  <edge id="e:np9,nt20" from="np9" to="nt20" type="a"/>
  <edge id="e:nt25,np10" from="nt25" to="np10" type="a"/>
  <edge id="e:np10,nt25" from="np10" to="nt25" type="a"/>
  <edge id="e:nt21,np16" from="nt21" to="np16" type="a"/>
  <edge id="e:np16,nt21" from="np16" to="nt21" type="a"/>
  <edge id="e:nt16,np17" from="nt16" to="np17" type="a"/>
  <edge id="e:np17,nt16" from="np17" to="nt16" type="a"/>
  <edge id="e:nt11,np18" from="nt11" to="np18" type="a"/>
  <edge id="e:np18,nt11" from="np18" to="nt11" type="a"/>
  <edge id="e:nt6,np19" from="nt6" to="np19" type="a"/>
  <edge id="e:np19,nt6" from="np19" to="nt6" type="a"/>
  <edge id="e:nt1,np20" from="nt1" to="np20" type="a"/>
  <edge id="e:np20,nt1" from="np20" to="nt1" type="a"/>
  <edge id="e:nt1,np1" from="nt1" to="np1" type="b"/>
  <edge id="e:np1,nt1" from="np1" to="nt1" type="b"/>
  <edge id="e:nt2,np2" from="nt2" to="np2" type="b"/>
  <edge id="e:np2,nt2" from="np2" to="nt2" type="b"/>
  <edge id="e:nt3,np3" from="nt3" to="np3" type="b"/>
  <edge id="e:np3,nt3" from="np3" to="nt3" type="b"/>
  <edge id="e:nt4,np4" from="nt4" to="np4" type="b"/>
  <edge id="e:np4,nt4" from="np4" to="nt4" type="b"/>
  <edge id="e:nt5,np5" from="nt5" to="np5" type="b"/>
  <edge id="e:np5,nt5" from="np5" to="nt5" type="b"/>
  <edge id="e:nt25,np11" from="nt25" to="np11" type="b"/>
  <edge id="e:np11,nt25" from="np11" to="nt25" type="b"/>
  <edge id="e:nt24,np12" from="nt24" to="np12" type="b"/>
  <edge id="e:np12,nt24" from="np12" to="nt24" type="b"/>
  <edge id="e:nt23,np13" from="nt23" to="np13" type="b"/>
  <edge id="e:np13,nt23" from="np13" to="nt23" type="b"/>
  <edge id="e:nt22,np14" from="nt22" to="np14" type="b"/>
  <edge id="e:np14,nt22" from="np14" to="nt22" type="b"/>
  <edge id="e:nt21,np15" from="nt21" to="np15" type="b"/>
  <edge id="e:np15,nt21" from="np15" to="nt21" type="b"/>
  <edge id="e:nt1,nt2" from="nt1" to="nt2" type="a"/>
  <edge id="e:nt2,nt1" from="nt2" to="nt1" type="a"/>
  <edge id="e:nt2,nt3" from="nt2" to="nt3" type="a"/>
  <edge id="e:nt3,nt2" from="nt3" to="nt2" type="a"/>
  <edge id="e:nt3,nt4" from="nt3" to="nt4" type="a"/>
  <edge id="e:nt4,nt3" from="nt4" to="nt3" type="a"/>
  <edge id="e:nt4,nt5" from="nt4" to="nt5" type="a"/>
  <edge id="e:nt5,nt4" from="nt5" to="nt4" type="a"/>
  <edge id="e:nt6,nt7" from="nt6" to="nt7" type="a"/>
  <edge id="e:nt7,nt6" from="nt7" to="nt6" type="a"/>
  <edge id="e:nt7,nt8" from="nt7" to="nt8" type="a"/>
  <edge id="e:nt8,nt7" from="nt8" to="nt7" type="a"/>
  <edge id="e:nt8,nt9" from="nt8" to="nt9" type="a"/>
  <edge id="e:nt9,nt8" from="nt9" to="nt8" type="a"/>
  <edge id="e:nt9,nt10" from="nt9" to="nt10" type="a"/>
  <edge id="e:nt10,nt9" from="nt10" to="nt9" type="a"/>
  <edge id="e:nt11,nt12" from="nt11" to="nt12" type="a"/>
  <edge id="e:nt12,nt11" from="nt12" to="nt11" type="a"/>
  <edge id="e:nt12,nt13" from="nt12" to="nt13" type="a"/>
  <edge id="e:nt13,nt12" from="nt13" to="nt12" type="a"/>
  <edge id="e:nt13,nt14" from="nt13" to="nt14" type="a"/>
  <edge id="e:nt14,nt13" from="nt14" to="nt13" type="a"/>
  <edge id="e:nt14,nt15" from="nt14" to="nt15" type="a"/>
  <edge id="e:nt15,nt14" from="nt15" to="nt14" type="a"/>
  <edge id="e:nt16,nt17" from="nt16" to="nt17" type="a"/>
  <edge id="e:nt17,nt16" from="nt17" to="nt16" type="a"/>
  <edge id="e:nt17,nt18" from="nt17" to="nt18" type="a"/>
  <edge id="e:nt18,nt17" from="nt18" to="nt17" type="a"/>
  <edge id="e:nt18,nt19" from="nt18" to="nt19" type="a"/>
  <edge id="e:nt19,nt18" from="nt19" to="nt18" type="a"/>
  <edge id="e:nt19,nt20" from="nt19" to="nt20" type="a"/>
  <edge id="e:nt20,nt19" from="nt20" to="nt19" type="a"/>
  <edge id="e:nt21,nt22" from="nt21" to="nt22" type="a"/>
  <edge id="e:nt22,nt21" from="nt22" to="nt21" type="a"/>
  <edge id="e:nt22,nt23" from="nt22" to="nt23" type="a"/>
  <edge id="e:nt23,nt22" from="nt23" to="nt22" type="a"/>
  <edge id="e:nt23,nt24" from="nt23" to="nt24" type="a"/>
  <edge id="e:nt24,nt23" from="nt24" to="nt23" type="a"/>
  <edge id="e:nt24,nt25" from="nt24" to="nt25" type="a"/>
  <edge id="e:nt25,nt24" from="nt25" to="nt24" type="a"/>
  <edge id="e:nt1,nt6" from="nt1" to="nt6" type="b"/>
  <edge id="e:nt6,nt1" from="nt6" to="nt1" type="b"/>
  <edge id="e:nt6,nt11" from="nt6" to="nt11" type="b"/>
  <edge id="e:nt11,nt6" from="nt11" to="nt6" type="b"/>
  <edge id="e:nt11,nt16" from="nt11" to="nt16" type="b"/>
  <edge id="e:nt16,nt11" from="nt16" to="nt11" type="b"/>
  <edge id="e:nt16,nt21" from="nt16" to="nt21" type="b"/>
  <edge id="e:nt21,nt16" from="nt21" to="nt16" type="b"/>
  <edge id="e:nt2,nt7" from="nt2" to="nt7" type="b"/>
  <edge id="e:nt7,nt2" from="nt7" to="nt2" type="b"/>
  <edge id="e:nt7,nt12" from="nt7" to="nt12" type="b"/>
  <edge id="e:nt12,nt7" from="nt12" to="nt7" type="b"/>
  <edge id="e:nt12,nt17" from="nt12" to="nt17" type="b"/>
  <edge id="e:nt17,nt12" from="nt17" to="nt12" type="b"/>
  <edge id="e:nt17,nt22" from="nt17" to="nt22" type="b"/>
  <edge id="e:nt22,nt17" from="nt22" to="nt17" type="b"/>
  <edge id="e:nt3,nt8" from="nt3" to="nt8" type="b"/>
  <edge id="e:nt8,nt3" from="nt8" to="nt3" type="b"/>
  <edge id="e:nt8,nt13" from="nt8" to="nt13" type="b"/>
  <edge id="e:nt13,nt8" from="nt13" to="nt8" type="b"/>
  <edge id="e:nt13,nt18" from="nt13" to="nt18" type="b"/>
  <edge id="e:nt18,nt13" from="nt18" to="nt13" type="b"/>
  <edge id="e:nt18,nt23" from="nt18" to="nt23" type="b"/>
  <edge id="e:nt23,nt18" from="nt23" to="nt18" type="b"/>
  <edge id="e:nt4,nt9" from="nt4" to="nt9" type="b"/>
  <edge id="e:nt9,nt4" from="nt9" to="nt4" type="b"/>
  <edge id="e:nt9,nt14" from="nt9" to="nt14" type="b"/>
  <edge id="e:nt14,nt9" from="nt14" to="nt9" type="b"/>
  <edge id="e:nt14,nt19" from="nt14" to="nt19" type="b"/>
  <edge id="e:nt19,nt14" from="nt19" to="nt14" type="b"/>
  <edge id="e:nt19,nt24" from="nt19" to="nt24" type="b"/>
  <edge id="e:nt24,nt19" from="nt24" to="nt19" type="b"/>
  <edge id="e:nt5,nt10" from="nt5" to="nt10" type="b"/>
  <edge id="e:nt10,nt5" from="nt10" to="nt5" type="b"/>
  <edge id="e:nt10,nt15" from="nt10" to="nt15" type="b"/>
  <edge id="e:nt15,nt10" from="nt15" to="nt10" type="b"/>
  <edge id="e:nt15,nt20" from="nt15" to="nt20" type="b"/>
  <edge id="e:nt20,nt15" from="nt20" to="nt15" type="b"/>
  <edge id="e:nt20,nt25" from="nt20" to="nt25" type="b"/>
  <edge id="e:nt25,nt20" from="nt25" to="nt20" type="b"/>
</edges>
