<additional>
  <laneAreaDetector file="ild.out" freq="1" id="ild:np6,nt5_0" lane="e:np6,nt5_0" pos="-50" endPos="-1"/>
  <laneAreaDetector file="ild.out" freq="1" id="ild:np6,nt5_1" lane="e:np6,nt5_1" pos="-50" endPos="-1"/>
  <laneAreaDetector file="ild.out" freq="1" id="ild:np7,nt10_0" lane="e:np7,nt10_0" pos="-50" endPos="-1"/>
  <laneAreaDetector file="ild.out" freq="1" id="ild:np7,nt10_1" lane="e:np7,nt10_1" pos="-50" endPos="-1"/>
  <laneAreaDetector file="ild.out" freq="1" id="ild:np8,nt15_0" lane="e:np8,nt15_0" pos="-50" endPos="-1"/>
  <laneAreaDetector file="ild.out" freq="1" id="ild:np8,nt15_1" lane="e:np8,nt15_1" pos="-50" endPos="-1"/>
  <laneAreaDetector file="ild.out" freq="1" id="ild:np9,nt20_0" lane="e:np9,nt20_0" pos="-50" endPos="-1"/>
  <laneAreaDetector file="ild.out" freq="1" id="ild:np9,nt20_1" lane="e:np9,nt20_1" pos="-50" endPos="-1"/>
  <laneAreaDetector file="ild.out" freq="1" id="ild:np10,nt25_0" lane="e:np10,nt25_0" pos="-50" endPos="-1"/>
  <laneAreaDetector file="ild.out" freq="1" id="ild:np10,nt25_1" lane="e:np10,nt25_1" pos="-50" endPos="-1"/>
  <laneAreaDetector file="ild.out" freq="1" id="ild:np16,nt21_0" lane="e:np16,nt21_0" pos="-50" endPos="-1"/>
  <laneAreaDetector file="ild.out" freq="1" id="ild:np16,nt21_1" lane="e:np16,nt21_1" pos="-50" endPos="-1"/>
  <laneAreaDetector file="ild.out" freq="1" id="ild:np17,nt16_0" lane="e:np17,nt16_0" pos="-50" endPos="-1"/>
  <laneAreaDetector file="ild.out" freq="1" id="ild:np17,nt16_1" lane="e:np17,nt16_1" pos="-50" endPos="-1"/>
  <laneAreaDetector file="ild.out" freq="1" id="ild:np18,nt11_0" lane="e:np18,nt11_0" pos="-50" endPos="-1"/>
  <laneAreaDetector file="ild.out" freq="1" id="ild:np18,nt11_1" lane="e:np18,nt11_1" pos="-50" endPos="-1"/>
  <laneAreaDetector file="ild.out" freq="1" id="ild:np19,nt6_0" lane="e:np19,nt6_0" pos="-50" endPos="-1"/>
  <laneAreaDetector file="ild.out" freq="1" id="ild:np19,nt6_1" lane="e:np19,nt6_1" pos="-50" endPos="-1"/>
  <laneAreaDetector file="ild.out" freq="1" id="ild:np20,nt1_0" lane="e:np20,nt1_0" pos="-50" endPos="-1"/>
  <laneAreaDetector file="ild.out" freq="1" id="ild:np20,nt1_1" lane="e:np20,nt1_1" pos="-50" endPos="-1"/>
  <laneAreaDetector file="ild.out" freq="1" id="ild:np1,nt1_0" lane="e:np1,nt1_0" pos="-50" endPos="-1"/>
  <laneAreaDetector file="ild.out" freq="1" id="ild:np2,nt2_0" lane="e:np2,nt2_0" pos="-50" endPos="-1"/>
  <laneAreaDetector file="ild.out" freq="1" id="ild:np3,nt3_0" lane="e:np3,nt3_0" pos="-50" endPos="-1"/>
  <laneAreaDetector file="ild.out" freq="1" id="ild:np4,nt4_0" lane="e:np4,nt4_0" pos="-50" endPos="-1"/>
  <laneAreaDetector file="ild.out" freq="1" id="ild:np5,nt5_0" lane="e:np5,nt5_0" pos="-50" endPos="-1"/>
  <laneAreaDetector file="ild.out" freq="1" id="ild:np11,nt25_0" lane="e:np11,nt25_0" pos="-50" endPos="-1"/>
  <laneAreaDetector file="ild.out" freq="1" id="ild:np12,nt24_0" lane="e:np12,nt24_0" pos="-50" endPos="-1"/>
  <laneAreaDetector file="ild.out" freq="1" id="ild:np13,nt23_0" lane="e:np13,nt23_0" pos="-50" endPos="-1"/>
  <laneAreaDetector file="ild.out" freq="1" id="ild:np14,nt22_0" lane="e:np14,nt22_0" pos="-50" endPos="-1"/>
  <laneAreaDetector file="ild.out" freq="1" id="ild:np15,nt21_0" lane="e:np15,nt21_0" pos="-50" endPos="-1"/>
  <laneAreaDetector file="ild.out" freq="1" id="ild:nt1,nt2_0" lane="e:nt1,nt2_0" pos="-50" endPos="-1"/>
  <laneAreaDetector file="ild.out" freq="1" id="ild:nt2,nt1_0" lane="e:nt2,nt1_0" pos="-50" endPos="-1"/>
  <laneAreaDetector file="ild.out" freq="1" id="ild:nt1,nt2_1" lane="e:nt1,nt2_1" pos="-50" endPos="-1"/>
  <laneAreaDetector file="ild.out" freq="1" id="ild:nt2,nt1_1" lane="e:nt2,nt1_1" pos="-50" endPos="-1"/>
  <laneAreaDetector file="ild.out" freq="1" id="ild:nt2,nt3_0" lane="e:nt2,nt3_0" pos="-50" endPos="-1"/>
  <laneAreaDetector file="ild.out" freq="1" id="ild:nt3,nt2_0" lane="e:nt3,nt2_0" pos="-50" endPos="-1"/>
  <laneAreaDetector file="ild.out" freq="1" id="ild:nt2,nt3_1" lane="e:nt2,nt3_1" pos="-50" endPos="-1"/>
  <laneAreaDetector file="ild.out" freq="1" id="ild:nt3,nt2_1" lane="e:nt3,nt2_1" pos="-50" endPos="-1"/>
  <laneAreaDetector file="ild.out" freq="1" id="ild:nt3,nt4_0" lane="e:nt3,nt4_0" pos="-50" endPos="-1"/>
  <laneAreaDetector file="ild.out" freq="1" id="ild:nt4,nt3_0" lane="e:nt4,nt3_0" pos="-50" endPos="-1"/>
  <laneAreaDetector file="ild.out" freq="1" id="ild:nt3,nt4_1" lane="e:nt3,nt4_1" pos="-50" endPos="-1"/>
  <laneAreaDetector file="ild.out" freq="1" id="ild:nt4,nt3_1" lane="e:nt4,nt3_1" pos="-50" endPos="-1"/>
  <laneAreaDetector file="ild.out" freq="1" id="ild:nt4,nt5_0" lane="e:nt4,nt5_0" pos="-50" endPos="-1"/>
  <laneAreaDetector file="ild.out" freq="1" id="ild:nt5,nt4_0" lane="e:nt5,nt4_0" pos="-50" endPos="-1"/>
  <laneAreaDetector file="ild.out" freq="1" id="ild:nt4,nt5_1" lane="e:nt4,nt5_1" pos="-50" endPos="-1"/>
  <laneAreaDetector file="ild.out" freq="1" id="ild:nt5,nt4_1" lane="e:nt5,nt4_1" pos="-50" endPos="-1"/>
  <laneAreaDetector file="ild.out" freq="1" id="ild:nt6,nt7_0" lane="e:nt6,nt7_0" pos="-50" endPos="-1"/>
  <laneAreaDetector file="ild.out" freq="1" id="ild:nt7,nt6_0" lane="e:nt7,nt6_0" pos="-50" endPos="-1"/>
  <laneAreaDetector file="ild.out" freq="1" id="ild:nt6,nt7_1" lane="e:nt6,nt7_1" pos="-50" endPos="-1"/>
  <laneAreaDetector file="ild.out" freq="1" id="ild:nt7,nt6_1" lane="e:nt7,nt6_1" pos="-50" endPos="-1"/>
  <laneAreaDetector file="ild.out" freq="1" id="ild:nt7,nt8_0" lane="e:nt7,nt8_0" pos="-50" endPos="-1"/>
  <laneAreaDetector file="ild.out" freq="1" id="ild:nt8,nt7_0" lane="e:nt8,nt7_0" pos="-50" endPos="-1"/>
  <laneAreaDetector file="ild.out" freq="1" id="ild:nt7,nt8_1" lane="e:nt7,nt8_1" pos="-50" endPos="-1"/>
  <laneAreaDetector file="ild.out" freq="1" id="ild:nt8,nt7_1" lane="e:nt8,nt7_1" pos="-50" endPos="-1"/>
  <laneAreaDetector file="ild.out" freq="1" id="ild:nt8,nt9_0" lane="e:nt8,nt9_0" pos="-50" endPos="-1"/>
  <laneAreaDetector file="ild.out" freq="1" id="ild:nt9,nt8_0" lane="e:nt9,nt8_0" pos="-50" endPos="-1"/>
  <laneAreaDetector file="ild.out" freq="1" id="ild:nt8,nt9_1" lane="e:nt8,nt9_1" pos="-50" endPos="-1"/>
  <laneAreaDetector file="ild.out" freq="1" id="ild:nt9,nt8_1" lane="e:nt9,nt8_1" pos="-50" endPos="-1"/>
  <laneAreaDetector file="ild.out" freq="1" id="ild:nt9,nt10_0" lane="e:nt9,nt10_0" pos="-50" endPos="-1"/>
  <laneAreaDetector file="ild.out" freq="1" id="ild:nt10,nt9_0" lane="e:nt10,nt9_0" pos="-50" endPos="-1"/>
  <laneAreaDetector file="ild.out" freq="1" id="ild:nt9,nt10_1" lane="e:nt9,nt10_1" pos="-50" endPos="-1"/>
  <laneAreaDetector file="ild.out" freq="1" id="ild:nt10,nt9_1" lane="e:nt10,nt9_1" pos="-50" endPos="-1"/>
  <laneAreaDetector file="ild.out" freq="1" id="ild:nt11,nt12_0" lane="e:nt11,nt12_0" pos="-50" endPos="-1"/>
  <laneAreaDetector file="ild.out" freq="1" id="ild:nt12,nt11_0" lane="e:nt12,nt11_0" pos="-50" endPos="-1"/>
  <laneAreaDetector file="ild.out" freq="1" id="ild:nt11,nt12_1" lane="e:nt11,nt12_1" pos="-50" endPos="-1"/>
  <laneAreaDetector file="ild.out" freq="1" id="ild:nt12,nt11_1" lane="e:nt12,nt11_1" pos="-50" endPos="-1"/>
  <laneAreaDetector file="ild.out" freq="1" id="ild:nt12,nt13_0" lane="e:nt12,nt13_0" pos="-50" endPos="-1"/>
  <laneAreaDetector file="ild.out" freq="1" id="ild:nt13,nt12_0" lane="e:nt13,nt12_0" pos="-50" endPos="-1"/>
  <laneAreaDetector file="ild.out" freq="1" id="ild:nt12,nt13_1" lane="e:nt12,nt13_1" pos="-50" endPos="-1"/>
  <laneAreaDetector file="ild.out" freq="1" id="ild:nt13,nt12_1" lane="e:nt13,nt12_1" pos="-50" endPos="-1"/>
  <laneAreaDetector file="ild.out" freq="1" id="ild:nt13,nt14_0" lane="e:nt13,nt14_0" pos="-50" endPos="-1"/>
  <laneAreaDetector file="ild.out" freq="1" id="ild:nt14,nt13_0" lane="e:nt14,nt13_0" pos="-50" endPos="-1"/>
  <laneAreaDetector file="ild.out" freq="1" id="ild:nt13,nt14_1" lane="e:nt13,nt14_1" pos="-50" endPos="-1"/>
  <laneAreaDetector file="ild.out" freq="1" id="ild:nt14,nt13_1" lane="e:nt14,nt13_1" pos="-50" endPos="-1"/>
  <laneAreaDetector file="ild.out" freq="1" id="ild:nt14,nt15_0" lane="e:nt14,nt15_0" pos="-50" endPos="-1"/>
  <laneAreaDetector file="ild.out" freq="1" id="ild:nt15,nt14_0" lane="e:nt15,nt14_0" pos="-50" endPos="-1"/>
  <laneAreaDetector file="ild.out" freq="1" id="ild:nt14,nt15_1" lane="e:nt14,nt15_1" pos="-50" endPos="-1"/>
  <laneAreaDetector file="ild.out" freq="1" id="ild:nt15,nt14_1" lane="e:nt15,nt14_1" pos="-50" endPos="-1"/>
  <laneAreaDetector file="ild.out" freq="1" id="ild:nt16,nt17_0" lane="e:nt16,nt17_0" pos="-50" endPos="-1"/>
  <laneAreaDetector file="ild.out" freq="1" id="ild:nt17,nt16_0" lane="e:nt17,nt16_0" pos="-50" endPos="-1"/>
  <laneAreaDetector file="ild.out" freq="1" id="ild:nt16,nt17_1" lane="e:nt16,nt17_1" pos="-50" endPos="-1"/>
  <laneAreaDetector file="ild.out" freq="1" id="ild:nt17,nt16_1" lane="e:nt17,nt16_1" pos="-50" endPos="-1"/>
  <laneAreaDetector file="ild.out" freq="1" id="ild:nt17,nt18_0" lane="e:nt17,nt18_0" pos="-50" endPos="-1"/>
  <laneAreaDetector file="ild.out" freq="1" id="ild:nt18,nt17_0" lane="e:nt18,nt17_0" pos="-50" endPos="-1"/>
  <laneAreaDetector file="ild.out" freq="1" id="ild:nt17,nt18_1" lane="e:nt17,nt18_1" pos="-50" endPos="-1"/>
  <laneAreaDetector file="ild.out" freq="1" id="ild:nt18,nt17_1" lane="e:nt18,nt17_1" pos="-50" endPos="-1"/>
  <laneAreaDetector file="ild.out" freq="1" id="ild:nt18,nt19_0" lane="e:nt18,nt19_0" pos="-50" endPos="-1"/>
  <laneAreaDetector file="ild.out" freq="1" id="ild:nt19,nt18_0" lane="e:nt19,nt18_0" pos="-50" endPos="-1"/>
  <laneAreaDetector file="ild.out" freq="1" id="ild:nt18,nt19_1" lane="e:nt18,nt19_1" pos="-50" endPos="-1"/>
  <laneAreaDetector file="ild.out" freq="1" id="ild:nt19,nt18_1" lane="e:nt19,nt18_1" pos="-50" endPos="-1"/>
  <laneAreaDetector file="ild.out" freq="1" id="ild:nt19,nt20_0" lane="e:nt19,nt20_0" pos="-50" endPos="-1"/>
  <laneAreaDetector file="ild.out" freq="1" id="ild:nt20,nt19_0" lane="e:nt20,nt19_0" pos="-50" endPos="-1"/>
  <laneAreaDetector file="ild.out" freq="1" id="ild:nt19,nt20_1" lane="e:nt19,nt20_1" pos="-50" endPos="-1"/>
  <laneAreaDetector file="ild.out" freq="1" id="ild:nt20,nt19_1" lane="e:nt20,nt19_1" pos="-50" endPos="-1"/>
  <laneAreaDetector file="ild.out" freq="1" id="ild:nt21,nt22_0" lane="e:nt21,nt22_0" pos="-50" endPos="-1"/>
  <laneAreaDetector file="ild.out" freq="1" id="ild:nt22,nt21_0" lane="e:nt22,nt21_0" pos="-50" endPos="-1"/>
  <laneAreaDetector file="ild.out" freq="1" id="ild:nt21,nt22_1" lane="e:nt21,nt22_1" pos="-50" endPos="-1"/>
  <laneAreaDetector file="ild.out" freq="1" id="ild:nt22,nt21_1" lane="e:nt22,nt21_1" pos="-50" endPos="-1"/>
  <laneAreaDetector file="ild.out" freq="1" id="ild:nt22,nt23_0" lane="e:nt22,nt23_0" pos="-50" endPos="-1"/>
  <laneAreaDetector file="ild.out" freq="1" id="ild:nt23,nt22_0" lane="e:nt23,nt22_0" pos="-50" endPos="-1"/>
  <laneAreaDetector file="ild.out" freq="1" id="ild:nt22,nt23_1" lane="e:nt22,nt23_1" pos="-50" endPos="-1"/>
  <laneAreaDetector file="ild.out" freq="1" id="ild:nt23,nt22_1" lane="e:nt23,nt22_1" pos="-50" endPos="-1"/>
  <laneAreaDetector file="ild.out" freq="1" id="ild:nt23,nt24_0" lane="e:nt23,nt24_0" pos="-50" endPos="-1"/>
  <laneAreaDetector file="ild.out" freq="1" id="ild:nt24,nt23_0" lane="e:nt24,nt23_0" pos="-50" endPos="-1"/>
  <laneAreaDetector file="ild.out" freq="1" id="ild:nt23,nt24_1" lane="e:nt23,nt24_1" pos="-50" endPos="-1"/>
  <laneAreaDetector file="ild.out" freq="1" id="ild:nt24,nt23_1" lane="e:nt24,nt23_1" pos="-50" endPos="-1"/>
  <laneAreaDetector file="ild.out" freq="1" id="ild:nt24,nt25_0" lane="e:nt24,nt25_0" pos="-50" endPos="-1"/>
  <laneAreaDetector file="ild.out" freq="1" id="ild:nt25,nt24_0" lane="e:nt25,nt24_0" pos="-50" endPos="-1"/>
  <laneAreaDetector file="ild.out" freq="1" id="ild:nt24,nt25_1" lane="e:nt24,nt25_1" pos="-50" endPos="-1"/>
  <laneAreaDetector file="ild.out" freq="1" id="ild:nt25,nt24_1" lane="e:nt25,nt24_1" pos="-50" endPos="-1"/>
  <laneAreaDetector file="ild.out" freq="1" id="ild:nt1,nt6_0" lane="e:nt1,nt6_0" pos="-50" endPos="-1"/>
  <laneAreaDetector file="ild.out" freq="1" id="ild:nt6,nt1_0" lane="e:nt6,nt1_0" pos="-50" endPos="-1"/>
  <laneAreaDetector file="ild.out" freq="1" id="ild:nt6,nt11_0" lane="e:nt6,nt11_0" pos="-50" endPos="-1"/>
  <laneAreaDetector file="ild.out" freq="1" id="ild:nt11,nt6_0" lane="e:nt11,nt6_0" pos="-50" endPos="-1"/>
  <laneAreaDetector file="ild.out" freq="1" id="ild:nt11,nt16_0" lane="e:nt11,nt16_0" pos="-50" endPos="-1"/>
  <laneAreaDetector file="ild.out" freq="1" id="ild:nt16,nt11_0" lane="e:nt16,nt11_0" pos="-50" endPos="-1"/>
  <laneAreaDetector file="ild.out" freq="1" id="ild:nt16,nt21_0" lane="e:nt16,nt21_0" pos="-50" endPos="-1"/>
  <laneAreaDetector file="ild.out" freq="1" id="ild:nt21,nt16_0" lane="e:nt21,nt16_0" pos="-50" endPos="-1"/>
  <laneAreaDetector file="ild.out" freq="1" id="ild:nt2,nt7_0" lane="e:nt2,nt7_0" pos="-50" endPos="-1"/>
  <laneAreaDetector file="ild.out" freq="1" id="ild:nt7,nt2_0" lane="e:nt7,nt2_0" pos="-50" endPos="-1"/>
  <laneAreaDetector file="ild.out" freq="1" id="ild:nt7,nt12_0" lane="e:nt7,nt12_0" pos="-50" endPos="-1"/>
  <laneAreaDetector file="ild.out" freq="1" id="ild:nt12,nt7_0" lane="e:nt12,nt7_0" pos="-50" endPos="-1"/>
  <laneAreaDetector file="ild.out" freq="1" id="ild:nt12,nt17_0" lane="e:nt12,nt17_0" pos="-50" endPos="-1"/>
  <laneAreaDetector file="ild.out" freq="1" id="ild:nt17,nt12_0" lane="e:nt17,nt12_0" pos="-50" endPos="-1"/>
  <laneAreaDetector file="ild.out" freq="1" id="ild:nt17,nt22_0" lane="e:nt17,nt22_0" pos="-50" endPos="-1"/>
  <laneAreaDetector file="ild.out" freq="1" id="ild:nt22,nt17_0" lane="e:nt22,nt17_0" pos="-50" endPos="-1"/>
  <laneAreaDetector file="ild.out" freq="1" id="ild:nt3,nt8_0" lane="e:nt3,nt8_0" pos="-50" endPos="-1"/>
  <laneAreaDetector file="ild.out" freq="1" id="ild:nt8,nt3_0" lane="e:nt8,nt3_0" pos="-50" endPos="-1"/>
  <laneAreaDetector file="ild.out" freq="1" id="ild:nt8,nt13_0" lane="e:nt8,nt13_0" pos="-50" endPos="-1"/>
  <laneAreaDetector file="ild.out" freq="1" id="ild:nt13,nt8_0" lane="e:nt13,nt8_0" pos="-50" endPos="-1"/>
  <laneAreaDetector file="ild.out" freq="1" id="ild:nt13,nt18_0" lane="e:nt13,nt18_0" pos="-50" endPos="-1"/>
  <laneAreaDetector file="ild.out" freq="1" id="ild:nt18,nt13_0" lane="e:nt18,nt13_0" pos="-50" endPos="-1"/>
  <laneAreaDetector file="ild.out" freq="1" id="ild:nt18,nt23_0" lane="e:nt18,nt23_0" pos="-50" endPos="-1"/>
  <laneAreaDetector file="ild.out" freq="1" id="ild:nt23,nt18_0" lane="e:nt23,nt18_0" pos="-50" endPos="-1"/>
  <laneAreaDetector file="ild.out" freq="1" id="ild:nt4,nt9_0" lane="e:nt4,nt9_0" pos="-50" endPos="-1"/>
  <laneAreaDetector file="ild.out" freq="1" id="ild:nt9,nt4_0" lane="e:nt9,nt4_0" pos="-50" endPos="-1"/>
  <laneAreaDetector file="ild.out" freq="1" id="ild:nt9,nt14_0" lane="e:nt9,nt14_0" pos="-50" endPos="-1"/>
  <laneAreaDetector file="ild.out" freq="1" id="ild:nt14,nt9_0" lane="e:nt14,nt9_0" pos="-50" endPos="-1"/>
  <laneAreaDetector file="ild.out" freq="1" id="ild:nt14,nt19_0" lane="e:nt14,nt19_0" pos="-50" endPos="-1"/>
  <laneAreaDetector file="ild.out" freq="1" id="ild:nt19,nt14_0" lane="e:nt19,nt14_0" pos="-50" endPos="-1"/>
  <laneAreaDetector file="ild.out" freq="1" id="ild:nt19,nt24_0" lane="e:nt19,nt24_0" pos="-50" endPos="-1"/>
  <laneAreaDetector file="ild.out" freq="1" id="ild:nt24,nt19_0" lane="e:nt24,nt19_0" pos="-50" endPos="-1"/>
  <laneAreaDetector file="ild.out" freq="1" id="ild:nt5,nt10_0" lane="e:nt5,nt10_0" pos="-50" endPos="-1"/>
  <laneAreaDetector file="ild.out" freq="1" id="ild:nt10,nt5_0" lane="e:nt10,nt5_0" pos="-50" endPos="-1"/>
  <laneAreaDetector file="ild.out" freq="1" id="ild:nt10,nt15_0" lane="e:nt10,nt15_0" pos="-50" endPos="-1"/>
  <laneAreaDetector file="ild.out" freq="1" id="ild:nt15,nt10_0" lane="e:nt15,nt10_0" pos="-50" endPos="-1"/>
  <laneAreaDetector file="ild.out" freq="1" id="ild:nt15,nt20_0" lane="e:nt15,nt20_0" pos="-50" endPos="-1"/>
  <laneAreaDetector file="ild.out" freq="1" id="ild:nt20,nt15_0" lane="e:nt20,nt15_0" pos="-50" endPos="-1"/>
  <laneAreaDetector file="ild.out" freq="1" id="ild:nt20,nt25_0" lane="e:nt20,nt25_0" pos="-50" endPos="-1"/>
  <laneAreaDetector file="ild.out" freq="1" id="ild:nt25,nt20_0" lane="e:nt25,nt20_0" pos="-50" endPos="-1"/>
</additional>
