<routes>
  <vType id="type1" length="5" accel="5" decel="10"/>
  <flow id="f:0_0" departPos="random_free" from="e:np12,nt24" to="e:nt2,np2" begin="0" end="300" vehsPerHour="264" type="type1"/>
  <flow id="f:0_1" departPos="random_free" from="e:np13,nt23" to="e:nt3,np3" begin="0" end="300" vehsPerHour="264" type="type1"/>
  <flow id="f:0_2" departPos="random_free" from="e:np14,nt22" to="e:nt4,np4" begin="0" end="300" vehsPerHour="264" type="type1"/>
  <flow id="f:0_3" departPos="random_free" from="e:np16,nt21" to="e:nt5,np6" begin="0" end="300" vehsPerHour="440" type="type1"/>
  <flow id="f:0_4" departPos="random_free" from="e:np18,nt11" to="e:nt15,np8" begin="0" end="300" vehsPerHour="440" type="type1"/>
  <flow id="f:0_5" departPos="random_free" from="e:np20,nt1" to="e:nt25,np10" begin="0" end="300" vehsPerHour="440" type="type1"/>
  <flow id="f:1_0" departPos="random_free" from="e:np12,nt24" to="e:nt2,np2" begin="300" end="600" vehsPerHour="461" type="type1"/>
  <flow id="f:1_1" departPos="random_free" from="e:np13,nt23" to="e:nt3,np3" begin="300" end="600" vehsPerHour="461" type="type1"/>
  <flow id="f:1_2" departPos="random_free" from="e:np14,nt22" to="e:nt4,np4" begin="300" end="600" vehsPerHour="461" type="type1"/>
  <flow id="f:1_3" departPos="random_free" from="e:np16,nt21" to="e:nt5,np6" begin="300" end="600" vehsPerHour="770" type="type1"/>
  <flow id="f:1_4" departPos="random_free" from="e:np18,nt11" to="e:nt15,np8" begin="300" end="600" vehsPerHour="770" type="type1"/>
  <flow id="f:1_5" departPos="random_free" from="e:np20,nt1" to="e:nt25,np10" begin="300" end="600" vehsPerHour="770" type="type1"/>
  <flow id="f:2_0" departPos="random_free" from="e:np12,nt24" to="e:nt2,np2" begin="600" end="900" vehsPerHour="594" type="type1"/>
  <flow id="f:2_1" departPos="random_free" from="e:np13,nt23" to="e:nt3,np3" begin="600" end="900" vehsPerHour="594" type="type1"/>
  <flow id="f:2_2" departPos="random_free" from="e:np14,nt22" to="e:nt4,np4" begin="600" end="900" vehsPerHour="594" type="type1"/>
  <flow id="f:2_3" departPos="random_free" from="e:np16,nt21" to="e:nt5,np6" begin="600" end="900" vehsPerHour="990" type="type1"/>
  <flow id="f:2_4" departPos="random_free" from="e:np18,nt11" to="e:nt15,np8" begin="600" end="900" vehsPerHour="990" type="type1"/>
  <flow id="f:2_5" departPos="random_free" from="e:np20,nt1" to="e:nt25,np10" begin="600" end="900" vehsPerHour="990" type="type1"/>
  <flow id="f:3_0" departPos="random_free" from="e:np12,nt24" to="e:nt2,np2" begin="900" end="1200" vehsPerHour="660" type="type1"/>
  <flow id="f:3_1" departPos="random_free" from="e:np13,nt23" to="e:nt3,np3" begin="900" end="1200" vehsPerHour="660" type="type1"/>
  <flow id="f:3_2" departPos="random_free" from="e:np14,nt22" to="e:nt4,np4" begin="900" end="1200" vehsPerHour="660" type="type1"/>
  <flow id="f:3_3" departPos="random_free" from="e:np16,nt21" to="e:nt5,np6" begin="900" end="1200" vehsPerHour="1100" type="type1"/>
  <flow id="f:3_4" departPos="random_free" from="e:np18,nt11" to="e:nt15,np8" begin="900" end="1200" vehsPerHour="1100" type="type1"/>
  <flow id="f:3_5" departPos="random_free" from="e:np20,nt1" to="e:nt25,np10" begin="900" end="1200" vehsPerHour="1100" type="type1"/>
  <flow id="f:3_6" departPos="random_free" from="e:np2,nt2" to="e:nt22,np14" begin="900" end="1200" vehsPerHour="166" type="type1"/>
  <flow id="f:3_7" departPos="random_free" from="e:np3,nt3" to="e:nt23,np13" begin="900" end="1200" vehsPerHour="166" type="type1"/>
  <flow id="f:3_8" departPos="random_free" from="e:np4,nt4" to="e:nt24,np12" begin="900" end="1200" vehsPerHour="166" type="type1"/>
  <flow id="f:3_9" departPos="random_free" from="e:np6,nt5" to="e:nt1,np20" begin="900" end="1200" vehsPerHour="277" type="type1"/>
  <flow id="f:3_10" departPos="random_free" from="e:np8,nt15" to="e:nt11,np18" begin="900" end="1200" vehsPerHour="277" type="type1"/>
  <flow id="f:3_11" departPos="random_free" from="e:np10,nt25" to="e:nt21,np16" begin="900" end="1200" vehsPerHour="277" type="type1"/>
  <flow id="f:4_0" departPos="random_free" from="e:np12,nt24" to="e:nt2,np2" begin="1200" end="1500" vehsPerHour="495" type="type1"/>
  <flow id="f:4_1" departPos="random_free" from="e:np13,nt23" to="e:nt3,np3" begin="1200" end="1500" vehsPerHour="495" type="type1"/>
  <flow id="f:4_2" departPos="random_free" from="e:np14,nt22" to="e:nt4,np4" begin="1200" end="1500" vehsPerHour="495" type="type1"/>
  <flow id="f:4_3" departPos="random_free" from="e:np16,nt21" to="e:nt5,np6" begin="1200" end="1500" vehsPerHour="825" type="type1"/>
  <flow id="f:4_4" departPos="random_free" from="e:np18,nt11" to="e:nt15,np8" begin="1200" end="1500" vehsPerHour="825" type="type1"/>
  <flow id="f:4_5" departPos="random_free" from="e:np20,nt1" to="e:nt25,np10" begin="1200" end="1500" vehsPerHour="825" type="type1"/>
  <flow id="f:4_6" departPos="random_free" from="e:np2,nt2" to="e:nt22,np14" begin="1200" end="1500" vehsPerHour="444" type="type1"/>
  <flow id="f:4_7" departPos="random_free" from="e:np3,nt3" to="e:nt23,np13" begin="1200" end="1500" vehsPerHour="444" type="type1"/>
  <flow id="f:4_8" departPos="random_free" from="e:np4,nt4" to="e:nt24,np12" begin="1200" end="1500" vehsPerHour="444" type="type1"/>
  <flow id="f:4_9" departPos="random_free" from="e:np6,nt5" to="e:nt1,np20" begin="1200" end="1500" vehsPerHour="740" type="type1"/>
  <flow id="f:4_10" departPos="random_free" from="e:np8,nt15" to="e:nt11,np18" begin="1200" end="1500" vehsPerHour="740" type="type1"/>
  <flow id="f:4_11" departPos="random_free" from="e:np10,nt25" to="e:nt21,np16" begin="1200" end="1500" vehsPerHour="740" type="type1"/>
  <flow id="f:5_0" departPos="random_free" from="e:np12,nt24" to="e:nt2,np2" begin="1500" end="1800" vehsPerHour="330" type="type1"/>
  <flow id="f:5_1" departPos="random_free" from="e:np13,nt23" to="e:nt3,np3" begin="1500" end="1800" vehsPerHour="330" type="type1"/>
  <flow id="f:5_2" departPos="random_free" from="e:np14,nt22" to="e:nt4,np4" begin="1500" end="1800" vehsPerHour="330" type="type1"/>
  <flow id="f:5_3" departPos="random_free" from="e:np16,nt21" to="e:nt5,np6" begin="1500" end="1800" vehsPerHour="550" type="type1"/>
  <flow id="f:5_4" departPos="random_free" from="e:np18,nt11" to="e:nt15,np8" begin="1500" end="1800" vehsPerHour="550" type="type1"/>
  <flow id="f:5_5" departPos="random_free" from="e:np20,nt1" to="e:nt25,np10" begin="1500" end="1800" vehsPerHour="550" type="type1"/>
  <flow id="f:5_6" departPos="random_free" from="e:np2,nt2" to="e:nt22,np14" begin="1500" end="1800" vehsPerHour="499" type="type1"/>
  <flow id="f:5_7" departPos="random_free" from="e:np3,nt3" to="e:nt23,np13" begin="1500" end="1800" vehsPerHour="499" type="type1"/>
  <flow id="f:5_8" departPos="random_free" from="e:np4,nt4" to="e:nt24,np12" begin="1500" end="1800" vehsPerHour="499" type="type1"/>
  <flow id="f:5_9" departPos="random_free" from="e:np6,nt5" to="e:nt1,np20" begin="1500" end="1800" vehsPerHour="832" type="type1"/>
  <flow id="f:5_10" departPos="random_free" from="e:np8,nt15" to="e:nt11,np18" begin="1500" end="1800" vehsPerHour="832" type="type1"/>
  <flow id="f:5_11" departPos="random_free" from="e:np10,nt25" to="e:nt21,np16" begin="1500" end="1800" vehsPerHour="832" type="type1"/>
  <flow id="f:6_0" departPos="random_free" from="e:np12,nt24" to="e:nt2,np2" begin="1800" end="2100" vehsPerHour="165" type="type1"/>
  <flow id="f:6_1" departPos="random_free" from="e:np13,nt23" to="e:nt3,np3" begin="1800" end="2100" vehsPerHour="165" type="type1"/>
  <flow id="f:6_2" departPos="random_free" from="e:np14,nt22" to="e:nt4,np4" begin="1800" end="2100" vehsPerHour="165" type="type1"/>
  <flow id="f:6_3" departPos="random_free" from="e:np16,nt21" to="e:nt5,np6" begin="1800" end="2100" vehsPerHour="275" type="type1"/>
  <flow id="f:6_4" departPos="random_free" from="e:np18,nt11" to="e:nt15,np8" begin="1800" end="2100" vehsPerHour="275" type="type1"/>
  <flow id="f:6_5" departPos="random_free" from="e:np20,nt1" to="e:nt25,np10" begin="1800" end="2100" vehsPerHour="275" type="type1"/>
  <flow id="f:6_6" departPos="random_free" from="e:np2,nt2" to="e:nt22,np14" begin="1800" end="2100" vehsPerHour="555" type="type1"/>
  <flow id="f:6_7" departPos="random_free" from="e:np3,nt3" to="e:nt23,np13" begin="1800" end="2100" vehsPerHour="555" type="type1"/>
  <flow id="f:6_8" departPos="random_free" from="e:np4,nt4" to="e:nt24,np12" begin="1800" end="2100" vehsPerHour="555" type="type1"/>
  <flow id="f:6_9" departPos="random_free" from="e:np6,nt5" to="e:nt1,np20" begin="1800" end="2100" vehsPerHour="925" type="type1"/>
  <flow id="f:6_10" departPos="random_free" from="e:np8,nt15" to="e:nt11,np18" begin="1800" end="2100" vehsPerHour="925" type="type1"/>
  <flow id="f:6_11" departPos="random_free" from="e:np10,nt25" to="e:nt21,np16" begin="1800" end="2100" vehsPerHour="925" type="type1"/>
  <flow id="f:7_0" departPos="random_free" from="e:np2,nt2" to="e:nt22,np14" begin="2100" end="2400" vehsPerHour="444" type="type1"/>
  <flow id="f:7_1" departPos="random_free" from="e:np3,nt3" to="e:nt23,np13" begin="2100" end="2400" vehsPerHour="444" type="type1"/>
  <flow id="f:7_2" departPos="random_free" from="e:np4,nt4" to="e:nt24,np12" begin="2100" end="2400" vehsPerHour="444" type="type1"/>
  <flow id="f:7_3" departPos="random_free" from="e:np6,nt5" to="e:nt1,np20" begin="2100" end="2400" vehsPerHour="740" type="type1"/>
  <flow id="f:7_4" departPos="random_free" from="e:np8,nt15" to="e:nt11,np18" begin="2100" end="2400" vehsPerHour="740" type="type1"/>
  <flow id="f:7_5" departPos="random_free" from="e:np10,nt25" to="e:nt21,np16" begin="2100" end="2400" vehsPerHour="740" type="type1"/>
  <flow id="f:8_0" departPos="random_free" from="e:np2,nt2" to="e:nt22,np14" begin="2400" end="2700" vehsPerHour="333" type="type1"/>
  <flow id="f:8_1" departPos="random_free" from="e:np3,nt3" to="e:nt23,np13" begin="2400" end="2700" vehsPerHour="333" type="type1"/>
  <flow id="f:8_2" departPos="random_free" from="e:np4,nt4" to="e:nt24,np12" begin="2400" end="2700" vehsPerHour="333" type="type1"/>
  <flow id="f:8_3" departPos="random_free" from="e:np6,nt5" to="e:nt1,np20" begin="2400" end="2700" vehsPerHour="555" type="type1"/>
  <flow id="f:8_4" departPos="random_free" from="e:np8,nt15" to="e:nt11,np18" begin="2400" end="2700" vehsPerHour="555" type="type1"/>
  <flow id="f:8_5" departPos="random_free" from="e:np10,nt25" to="e:nt21,np16" begin="2400" end="2700" vehsPerHour="555" type="type1"/>
  <flow id="f:9_0" departPos="random_free" from="e:np2,nt2" to="e:nt22,np14" begin="2700" end="3000" vehsPerHour="111" type="type1"/>
  <flow id="f:9_1" departPos="random_free" from="e:np3,nt3" to="e:nt23,np13" begin="2700" end="3000" vehsPerHour="111" type="type1"/>
  <flow id="f:9_2" departPos="random_free" from="e:np4,nt4" to="e:nt24,np12" begin="2700" end="3000" vehsPerHour="111" type="type1"/>
  <flow id="f:9_3" departPos="random_free" from="e:np6,nt5" to="e:nt1,np20" begin="2700" end="3000" vehsPerHour="185" type="type1"/>
  <flow id="f:9_4" departPos="random_free" from="e:np8,nt15" to="e:nt11,np18" begin="2700" end="3000" vehsPerHour="185" type="type1"/>
  <flow id="f:9_5" departPos="random_free" from="e:np10,nt25" to="e:nt21,np16" begin="2700" end="3000" vehsPerHour="185" type="type1"/>
</routes>
